@<TRIPOS>MOLECULE
*****
 48 50 0 0 0
SMALL
GASTEIGER

@<TRIPOS>ATOM
      1 C         140.1015  141.6857  165.6516 C.3     1  UNL1        0.1152
      2 C         139.6737  140.2525  165.5371 C.ar    1  UNL1        0.0046
      3 C         138.5914  139.7195  166.4285 C.ar    1  UNL1        0.0275
      4 C         138.1635  138.2864  166.3141 C.ar    1  UNL1        0.1429
      5 F         137.0813  137.7534  167.2055 F       1  UNL1       -0.2041
      6 C         138.8180  137.3863  165.3084 C.ar    1  UNL1        0.0667
      7 C         139.9003  137.9194  164.4170 C.ar    1  UNL1        0.1461
      8 C         140.3281  139.3525  164.5314 C.ar    1  UNL1        0.0349
      9 O         140.5547  137.0192  163.4112 O.3     1  UNL1       -0.4263
     10 C         141.2126  137.6045  162.1969 C.3     1  UNL1        0.4723
     11 F         142.5432  137.5391  162.8863 F       1  UNL1       -0.1579
     12 F         139.8820  137.6700  161.5076 F       1  UNL1       -0.1579
     13 C         141.8705  138.1898  160.9826 C.3     1  UNL1        0.4202
     14 F         141.2000  138.0895  159.6446 F       1  UNL1       -0.1876
     15 F         143.1989  138.8755  161.1064 F       1  UNL1       -0.1876
     16 C         140.5030  141.4519  167.0778 C.ar    1  UNL1        0.0792
     17 C         140.0780  142.4171  168.1444 C.ar    1  UNL1        0.0175
     18 C         140.4796  142.1833  169.5707 C.ar    1  UNL1        0.0142
     19 C         141.3061  140.9843  169.9302 C.ar    1  UNL1        0.0768
     20 CL        141.7077  140.7505  171.3565 Cl      1  UNL1       -0.0806
     21 C         141.7311  140.0191  168.8635 C.ar    1  UNL1        0.1098
     22 N         141.3296  140.2529  167.4373 N.ar    1  UNL1       -0.2454
     23 C         138.3156  142.4003  163.9051 C.2     1  UNL1        0.2399
     24 O         137.6763  142.5807  164.3457 O.2     1  UNL1       -0.2736
     25 N         139.7000  141.9195  164.2254 N.am    1  UNL1       -0.2978
     26 H         140.3450  141.7574  163.4995 H       1  UNL1        0.1500
     27 N         137.2957  143.9826  162.2576 N.3     1  UNL1       -0.3126
     28 C         137.9141  142.6341  162.4789 C.3     1  UNL1        0.1699
     29 H         137.2668  144.4924  163.1406 H       1  UNL1        0.1193
     30 H         136.3472  143.8672  161.9005 H       1  UNL1        0.1193
     31 C         138.1476  141.5682  161.4496 C.3     1  UNL1        0.2849
     32 O         137.4889  140.5601  162.3441 O.3     1  UNL1       -0.3715
     33 H         137.2045  140.9927  163.1644 H       1  UNL1        0.2109
     34 C         138.3811  140.5023  160.4204 C.3     1  UNL1        0.4292
     35 F         138.6145  139.4364  159.3912 F       1  UNL1       -0.1672
     36 F         139.8424  140.7676  160.2106 F       1  UNL1       -0.1672
     37 F         136.9374  140.1040  160.5053 F       1  UNL1       -0.1672
     38 C         138.8063  142.5761  160.5551 C.3     1  UNL1        0.4292
     39 F         139.4650  143.5841  159.6606 F       1  UNL1       -0.1672
     40 F         139.9834  142.8635  161.4392 F       1  UNL1       -0.1672
     41 F         137.7897  142.5344  159.4529 F       1  UNL1       -0.1672
     42 C         140.5293  143.1188  165.7660 C.3     1  UNL1        0.0543
     43 C         141.6656  143.6313  164.9314 C.ar    1  UNL1       -0.0199
     44 C         141.4437  144.7699  163.9806 C.ar    1  UNL1       -0.0042
     45 C         142.5799  145.2824  163.1461 C.ar    1  UNL1       -0.0003
     46 C         143.9379  144.6562  163.2624 C.ar    1  UNL1       -0.0000
     47 C         144.1598  143.5175  164.2133 C.ar    1  UNL1       -0.0003
     48 C         143.0236  143.0051  165.0478 C.ar    1  UNL1       -0.0042
@<TRIPOS>BOND
     1    27    28    1
     2    28    23    1
     3    23    24    2
     4    23    25   am
     5    25     1    1
     6     1    42    1
     7    42    43    1
     8    43    44   ar
     9    44    45   ar
    10    45    46   ar
    11    46    47   ar
    12    47    48   ar
    13     1     2    1
    14     2     3   ar
    15     3     4   ar
    16     4     5    1
    17     4     6   ar
    18     6     7   ar
    19     7     9    1
    20     9    10    1
    21    10    11    1
    22    10    12    1
    23    10    13    1
    24    13    14    1
    25    13    15    1
    26     7     8   ar
    27     1    16    1
    28    16    17   ar
    29    17    18   ar
    30    18    19   ar
    31    19    20    1
    32    19    21   ar
    33    21    22   ar
    34    28    31    1
    35    31    32    1
    36    31    34    1
    37    34    35    1
    38    34    36    1
    39    34    37    1
    40    31    38    1
    41    38    39    1
    42    38    40    1
    43    38    41    1
    44    48    43   ar
    45     8     2   ar
    46    22    16   ar
    47    27    29    1
    48    27    30    1
    49    25    26    1
    50    32    33    1
@<TRIPOS>MOLECULE
*****
 48 50 0 0 0
SMALL
GASTEIGER

@<TRIPOS>ATOM
      1 C         140.6197  140.2349  165.4207 C.3     1  UNL1        0.1152
      2 C         142.0519  139.7888  165.4246 C.ar    1  UNL1        0.0046
      3 C         142.4657  138.6027  166.2443 C.ar    1  UNL1        0.0275
      4 C         143.8978  138.1566  166.2483 C.ar    1  UNL1        0.1429
      5 F         144.3116  136.9705  167.0680 F       1  UNL1       -0.2041
      6 C         144.9160  138.8966  165.4325 C.ar    1  UNL1        0.0667
      7 C         144.5022  140.0827  164.6128 C.ar    1  UNL1        0.1461
      8 C         143.0701  140.5288  164.6088 C.ar    1  UNL1        0.0349
      9 O         145.5206  140.8226  163.7970 O.3     1  UNL1       -0.4263
     10 C         145.1019  141.9918  162.9557 C.3     1  UNL1        0.4723
     11 F         145.3147  142.9085  164.1238 F       1  UNL1       -0.1579
     12 F         144.8890  141.0751  161.7877 F       1  UNL1       -0.1579
     13 C         144.6832  143.1609  162.1145 C.3     1  UNL1        0.4202
     14 F         144.4776  142.9877  160.6388 F       1  UNL1       -0.1876
     15 F         144.4699  144.5034  162.7490 F       1  UNL1       -0.1876
     16 C         140.4751  139.7583  164.0058 C.ar    1  UNL1        0.0792
     17 C         139.8605  138.4192  163.7246 C.ar    1  UNL1        0.0175
     18 C         139.7159  137.9425  162.3097 C.ar    1  UNL1        0.0142
     19 C         140.1860  138.8049  161.1760 C.ar    1  UNL1        0.0768
     20 CL        140.0415  138.3283  159.7611 Cl      1  UNL1       -0.0806
     21 C         140.8007  140.1440  161.4572 C.ar    1  UNL1        0.1098
     22 N         140.9453  140.6207  162.8721 N.ar    1  UNL1       -0.2454
     23 C         139.9712  140.0619  167.9306 C.2     1  UNL1        0.2399
     24 O         139.4396  139.4682  167.9520 O.2     1  UNL1       -0.2736
     25 N         140.7643  140.7116  166.8355 N.am    1  UNL1       -0.2978
     26 H         141.3796  141.4509  167.0455 H       1  UNL1        0.1500
     27 N         138.9755  140.1187  170.2248 N.3     1  UNL1       -0.3126
     28 C         140.1158  140.5386  169.3454 C.3     1  UNL1        0.1699
     29 H         138.3060  139.5772  169.6780 H       1  UNL1        0.1193
     30 H         138.5150  140.9465  170.6030 H       1  UNL1        0.1193
     31 C         141.3141  141.3472  169.7457 C.3     1  UNL1        0.2849
     32 O         142.2163  140.2861  169.1887 O.3     1  UNL1       -0.3715
     33 H         141.6802  139.5643  168.8247 H       1  UNL1        0.2109
     34 C         142.5124  142.1558  170.1460 C.3     1  UNL1        0.4292
     35 F         143.7107  142.9644  170.5462 F       1  UNL1       -0.1672
     36 F         142.0211  143.4769  169.6331 F       1  UNL1       -0.1672
     37 F         143.1547  140.9240  170.7119 F       1  UNL1       -0.1672
     38 C         140.4121  142.4083  170.3027 C.3     1  UNL1        0.4292
     39 F         139.5100  143.4695  170.8597 F       1  UNL1       -0.1672
     40 F         140.7147  142.1637  171.7513 F       1  UNL1       -0.1672
     41 F         139.8895  142.9117  168.9898 F       1  UNL1       -0.1672
     42 C         139.1876  140.6810  165.4167 C.3     1  UNL1        0.0543
     43 C         138.8169  142.0077  164.8230 C.ar    1  UNL1       -0.0199
     44 C         137.8431  142.0739  163.6840 C.ar    1  UNL1       -0.0042
     45 C         137.4725  143.4006  163.0903 C.ar    1  UNL1       -0.0003
     46 C         138.0756  144.6611  163.6357 C.ar    1  UNL1       -0.0000
     47 C         139.0494  144.5949  164.7747 C.ar    1  UNL1       -0.0003
     48 C         139.4200  143.2682  165.3683 C.ar    1  UNL1       -0.0042
@<TRIPOS>BOND
     1    27    28    1
     2    28    23    1
     3    23    24    2
     4    23    25   am
     5    25     1    1
     6     1    42    1
     7    42    43    1
     8    43    44   ar
     9    44    45   ar
    10    45    46   ar
    11    46    47   ar
    12    47    48   ar
    13     1     2    1
    14     2     3   ar
    15     3     4   ar
    16     4     5    1
    17     4     6   ar
    18     6     7   ar
    19     7     9    1
    20     9    10    1
    21    10    11    1
    22    10    12    1
    23    10    13    1
    24    13    14    1
    25    13    15    1
    26     7     8   ar
    27     1    16    1
    28    16    17   ar
    29    17    18   ar
    30    18    19   ar
    31    19    20    1
    32    19    21   ar
    33    21    22   ar
    34    28    31    1
    35    31    32    1
    36    31    34    1
    37    34    35    1
    38    34    36    1
    39    34    37    1
    40    31    38    1
    41    38    39    1
    42    38    40    1
    43    38    41    1
    44    48    43   ar
    45     8     2   ar
    46    22    16   ar
    47    27    29    1
    48    27    30    1
    49    25    26    1
    50    32    33    1
@<TRIPOS>MOLECULE
*****
 48 50 0 0 0
SMALL
GASTEIGER

@<TRIPOS>ATOM
      1 C         140.6223  142.3844  160.4009 C.3     1  UNL1        0.1152
      2 C         141.3024  141.1109  159.9937 C.ar    1  UNL1        0.0046
      3 C         142.0554  141.0439  158.6982 C.ar    1  UNL1        0.0275
      4 C         142.7355  139.7705  158.2910 C.ar    1  UNL1        0.1429
      5 F         143.4886  139.7035  156.9954 F       1  UNL1       -0.2041
      6 C         142.6626  138.5641  159.1793 C.ar    1  UNL1        0.0667
      7 C         141.9096  138.6311  160.4749 C.ar    1  UNL1        0.1461
      8 C         141.2295  139.9045  160.8821 C.ar    1  UNL1        0.0349
      9 O         141.8367  137.4246  161.3633 O.3     1  UNL1       -0.4263
     10 C         141.6743  137.5929  162.8449 C.3     1  UNL1        0.4723
     11 F         140.2301  137.2040  162.7308 F       1  UNL1       -0.1579
     12 F         143.1185  137.9818  162.9590 F       1  UNL1       -0.1579
     13 C         141.5119  137.7612  164.3265 C.3     1  UNL1        0.4202
     14 F         142.7044  138.0736  165.1810 F       1  UNL1       -0.1876
     15 F         140.1569  137.6171  164.9537 F       1  UNL1       -0.1876
     16 C         139.6348  142.2138  159.2848 C.ar    1  UNL1        0.0792
     17 C         139.5483  143.2421  158.1961 C.ar    1  UNL1        0.0175
     18 C         138.5607  143.0714  157.0800 C.ar    1  UNL1        0.0142
     19 C         137.6597  141.8725  157.0525 C.ar    1  UNL1        0.0768
     20 CL        136.6722  141.7018  155.9364 Cl      1  UNL1       -0.0806
     21 C         137.7462  140.8442  158.1412 C.ar    1  UNL1        0.1098
     22 N         138.7337  141.0148  159.2573 N.ar    1  UNL1       -0.2454
     23 C         142.7671  143.4958  161.3572 C.2     1  UNL1        0.2399
     24 O         143.0139  143.9755  160.7702 O.2     1  UNL1       -0.2736
     25 N         141.6098  142.5550  161.5170 N.am    1  UNL1       -0.2978
     26 H         141.4983  142.0494  162.3544 H       1  UNL1        0.1500
     27 N         144.0394  145.1049  162.7891 N.3     1  UNL1       -0.3126
     28 C         143.7546  143.6664  162.4733 C.3     1  UNL1        0.1699
     29 H         143.4936  145.7035  162.1693 H       1  UNL1        0.1193
     30 H         145.0330  145.2922  162.6548 H       1  UNL1        0.1193
     31 C         144.3434  142.4611  163.1445 C.3     1  UNL1        0.2849
     32 O         144.7046  141.8914  161.8047 O.3     1  UNL1       -0.3715
     33 H         144.4235  142.5035  161.1067 H       1  UNL1        0.2109
     34 C         144.9323  141.2558  163.8157 C.3     1  UNL1        0.4292
     35 F         145.5211  140.0505  164.4868 F       1  UNL1       -0.1672
     36 F         143.6642  140.7587  164.4440 F       1  UNL1       -0.1672
     37 F         146.2823  141.6087  163.2651 F       1  UNL1       -0.1672
     38 C         143.9823  143.0307  164.4843 C.3     1  UNL1        0.4292
     39 F         143.6211  143.6003  165.8242 F       1  UNL1       -0.1672
     40 F         145.3824  143.1968  164.9959 F       1  UNL1       -0.1672
     41 F         142.4939  143.0035  164.2994 F       1  UNL1       -0.1672
     42 C         139.9421  143.6578  160.8080 C.3     1  UNL1        0.0543
     43 C         139.2694  143.7544  162.1452 C.ar    1  UNL1       -0.0199
     44 C         138.1522  142.8156  162.4923 C.ar    1  UNL1       -0.0042
     45 C         137.4795  142.9123  163.8295 C.ar    1  UNL1       -0.0003
     46 C         137.9239  143.9478  164.8195 C.ar    1  UNL1       -0.0000
     47 C         139.0411  144.8866  164.4724 C.ar    1  UNL1       -0.0003
     48 C         139.7138  144.7899  163.1353 C.ar    1  UNL1       -0.0042
@<TRIPOS>BOND
     1    27    28    1
     2    28    23    1
     3    23    24    2
     4    23    25   am
     5    25     1    1
     6     1    42    1
     7    42    43    1
     8    43    44   ar
     9    44    45   ar
    10    45    46   ar
    11    46    47   ar
    12    47    48   ar
    13     1     2    1
    14     2     3   ar
    15     3     4   ar
    16     4     5    1
    17     4     6   ar
    18     6     7   ar
    19     7     9    1
    20     9    10    1
    21    10    11    1
    22    10    12    1
    23    10    13    1
    24    13    14    1
    25    13    15    1
    26     7     8   ar
    27     1    16    1
    28    16    17   ar
    29    17    18   ar
    30    18    19   ar
    31    19    20    1
    32    19    21   ar
    33    21    22   ar
    34    28    31    1
    35    31    32    1
    36    31    34    1
    37    34    35    1
    38    34    36    1
    39    34    37    1
    40    31    38    1
    41    38    39    1
    42    38    40    1
    43    38    41    1
    44    48    43   ar
    45     8     2   ar
    46    22    16   ar
    47    27    29    1
    48    27    30    1
    49    25    26    1
    50    32    33    1
@<TRIPOS>MOLECULE
*****
 48 50 0 0 0
SMALL
GASTEIGER

@<TRIPOS>ATOM
      1 C         140.5075  140.2822  160.2449 C.3     1  UNL1        0.1152
      2 C         141.5900  141.1683  159.7034 C.ar    1  UNL1        0.0046
      3 C         141.5117  141.6712  158.2924 C.ar    1  UNL1        0.0275
      4 C         142.5941  142.5572  157.7508 C.ar    1  UNL1        0.1429
      5 F         142.5157  143.0602  156.3398 F       1  UNL1       -0.2041
      6 C         143.7548  142.9403  158.6202 C.ar    1  UNL1        0.0667
      7 C         143.8331  142.4374  160.0312 C.ar    1  UNL1        0.1461
      8 C         142.7507  141.5514  160.5728 C.ar    1  UNL1        0.0349
      9 O         144.9939  142.8205  160.9007 O.3     1  UNL1       -0.4263
     10 C         144.8605  142.7724  162.3939 C.3     1  UNL1        0.4723
     11 F         145.5152  141.4229  162.4089 F       1  UNL1       -0.1579
     12 F         144.2059  144.1219  162.3790 F       1  UNL1       -0.1579
     13 C         144.7272  142.7242  163.8872 C.3     1  UNL1        0.4202
     14 F         144.7982  141.4088  164.6045 F       1  UNL1       -0.1876
     15 F         144.5228  143.9916  164.6632 F       1  UNL1       -0.1876
     16 C         140.8111  139.2642  159.1860 C.ar    1  UNL1        0.0792
     17 C         139.7359  138.8268  158.2359 C.ar    1  UNL1        0.0175
     18 C         140.0396  137.8087  157.1769 C.ar    1  UNL1        0.0142
     19 C         141.4183  137.2281  157.0680 C.ar    1  UNL1        0.0768
     20 CL        141.7220  136.2100  156.0090 Cl      1  UNL1       -0.0806
     21 C         142.4935  137.6655  158.0181 C.ar    1  UNL1        0.1098
     22 N         142.1899  138.6835  159.0771 N.ar    1  UNL1       -0.2454
     23 C         139.1598  142.3489  161.0588 C.2     1  UNL1        0.2399
     24 O         138.6779  142.5182  160.4467 O.2     1  UNL1       -0.2736
     25 N         140.2040  141.3002  161.3039 N.am    1  UNL1       -0.2978
     26 H         140.6900  141.2801  162.1598 H       1  UNL1        0.1500
     27 N         137.3879  143.5117  162.3879 N.3     1  UNL1       -0.3126
     28 C         138.8562  143.3670  162.1178 C.3     1  UNL1        0.1699
     29 H         136.8669  142.8748  161.7851 H       1  UNL1        0.1193
     30 H         137.1002  144.4716  162.1977 H       1  UNL1        0.1193
     31 C         139.9743  144.1141  162.7824 C.3     1  UNL1        0.2849
     32 O         140.6040  144.3626  161.4438 O.3     1  UNL1       -0.3715
     33 H         140.0581  143.9606  160.7500 H       1  UNL1        0.2109
     34 C         141.0924  144.8612  163.4470 C.3     1  UNL1        0.4292
     35 F         142.2104  145.6083  164.1116 F       1  UNL1       -0.1672
     36 F         141.4998  143.7739  164.3965 F       1  UNL1       -0.1672
     37 F         140.8192  146.0486  162.5719 F       1  UNL1       -0.1672
     38 C         139.3447  143.8657  164.1210 C.3     1  UNL1        0.4292
     39 F         138.7150  143.6173  165.4596 F       1  UNL1       -0.1672
     40 F         139.5176  142.3758  164.1307 F       1  UNL1       -0.1672
     41 F         139.0183  145.2952  164.4376 F       1  UNL1       -0.1672
     42 C         139.4251  139.3962  160.7864 C.3     1  UNL1        0.0543
     43 C         139.5934  138.7384  162.1240 C.ar    1  UNL1       -0.0199
     44 C         140.7786  137.8559  162.3821 C.ar    1  UNL1       -0.0042
     45 C         140.9468  137.1982  163.7196 C.ar    1  UNL1       -0.0003
     46 C         139.9298  137.4229  164.7991 C.ar    1  UNL1       -0.0000
     47 C         138.7446  138.3053  164.5410 C.ar    1  UNL1       -0.0003
     48 C         138.5764  138.9631  163.2035 C.ar    1  UNL1       -0.0042
@<TRIPOS>BOND
     1    27    28    1
     2    28    23    1
     3    23    24    2
     4    23    25   am
     5    25     1    1
     6     1    42    1
     7    42    43    1
     8    43    44   ar
     9    44    45   ar
    10    45    46   ar
    11    46    47   ar
    12    47    48   ar
    13     1     2    1
    14     2     3   ar
    15     3     4   ar
    16     4     5    1
    17     4     6   ar
    18     6     7   ar
    19     7     9    1
    20     9    10    1
    21    10    11    1
    22    10    12    1
    23    10    13    1
    24    13    14    1
    25    13    15    1
    26     7     8   ar
    27     1    16    1
    28    16    17   ar
    29    17    18   ar
    30    18    19   ar
    31    19    20    1
    32    19    21   ar
    33    21    22   ar
    34    28    31    1
    35    31    32    1
    36    31    34    1
    37    34    35    1
    38    34    36    1
    39    34    37    1
    40    31    38    1
    41    38    39    1
    42    38    40    1
    43    38    41    1
    44    48    43   ar
    45     8     2   ar
    46    22    16   ar
    47    27    29    1
    48    27    30    1
    49    25    26    1
    50    32    33    1
@<TRIPOS>MOLECULE
*****
 48 50 0 0 0
SMALL
GASTEIGER

@<TRIPOS>ATOM
      1 C         141.5608  140.8624  160.9237 C.3     1  UNL1        0.1152
      2 C         141.2959  142.2993  160.5838 C.ar    1  UNL1        0.0046
      3 C         141.9941  142.9353  159.4185 C.ar    1  UNL1        0.0275
      4 C         141.7292  144.3720  159.0786 C.ar    1  UNL1        0.1429
      5 F         142.4274  145.0081  157.9132 F       1  UNL1       -0.2041
      6 C         140.7662  145.1727  159.9039 C.ar    1  UNL1        0.0667
      7 C         140.0680  144.5367  161.0693 C.ar    1  UNL1        0.1461
      8 C         140.3328  143.1000  161.4092 C.ar    1  UNL1        0.0349
      9 O         139.1048  145.3375  161.8947 O.3     1  UNL1       -0.4263
     10 C         138.7323  144.8747  163.2720 C.3     1  UNL1        0.4723
     11 F         140.0538  145.3579  163.7917 F       1  UNL1       -0.1579
     12 F         137.4109  144.3915  162.7522 F       1  UNL1       -0.1579
     13 C         138.3598  144.4119  164.6493 C.3     1  UNL1        0.4202
     14 F         138.6864  145.2631  165.8404 F       1  UNL1       -0.1876
     15 F         137.6607  143.0979  164.8355 F       1  UNL1       -0.1876
     16 C         140.9091  140.4389  159.6408 C.ar    1  UNL1        0.0792
     17 C         139.4394  140.6591  159.4377 C.ar    1  UNL1        0.0175
     18 C         138.7877  140.2355  158.1547 C.ar    1  UNL1        0.0142
     19 C         139.6059  139.5916  157.0749 C.ar    1  UNL1        0.0768
     20 CL        138.9542  139.1680  155.7919 Cl      1  UNL1       -0.0806
     21 C         141.0756  139.3714  157.2780 C.ar    1  UNL1        0.1098
     22 N         141.7273  139.7950  158.5609 N.ar    1  UNL1       -0.2454
     23 C         143.6963  141.4998  162.2593 C.2     1  UNL1        0.2399
     24 O         144.2839  141.4389  161.7240 O.2     1  UNL1       -0.2736
     25 N         142.2124  141.2860  162.2066 N.am    1  UNL1       -0.2978
     26 H         141.6663  141.4238  163.0141 H       1  UNL1        0.1500
     27 N         145.8364  142.0660  163.4243 N.3     1  UNL1       -0.3126
     28 C         144.3479  141.9234  163.5422 C.3     1  UNL1        0.1699
     29 H         146.1251  141.8421  162.4719 H       1  UNL1        0.1193
     30 H         146.2919  141.4276  164.0765 H       1  UNL1        0.1193
     31 C         143.5128  142.1567  164.7662 C.3     1  UNL1        0.2849
     32 O         143.1379  140.7045  164.7873 O.3     1  UNL1       -0.3715
     33 H         143.5662  140.2491  164.0456 H       1  UNL1        0.2109
     34 C         142.6778  142.3901  165.9902 C.3     1  UNL1        0.4292
     35 F         141.8427  142.6234  167.2142 F       1  UNL1       -0.1672
     36 F         141.8007  143.4606  165.4118 F       1  UNL1       -0.1672
     37 F         143.4589  141.3401  166.7234 F       1  UNL1       -0.1672
     38 C         143.8877  143.6090  164.7452 C.3     1  UNL1        0.4292
     39 F         144.2626  145.0613  164.7241 F       1  UNL1       -0.1672
     40 F         144.7014  143.6061  166.0052 F       1  UNL1       -0.1672
     41 F         143.1653  143.9659  163.4799 F       1  UNL1       -0.1672
     42 C         141.8257  139.4257  161.2635 C.3     1  UNL1        0.0543
     43 C         141.1196  138.7866  162.4225 C.ar    1  UNL1       -0.0199
     44 C         139.6776  139.1023  162.6889 C.ar    1  UNL1       -0.0042
     45 C         138.9717  138.4633  163.8478 C.ar    1  UNL1       -0.0003
     46 C         139.7077  137.5085  164.7404 C.ar    1  UNL1       -0.0000
     47 C         141.1497  137.1928  164.4741 C.ar    1  UNL1       -0.0003
     48 C         141.8556  137.8319  163.3151 C.ar    1  UNL1       -0.0042
@<TRIPOS>BOND
     1    27    28    1
     2    28    23    1
     3    23    24    2
     4    23    25   am
     5    25     1    1
     6     1    42    1
     7    42    43    1
     8    43    44   ar
     9    44    45   ar
    10    45    46   ar
    11    46    47   ar
    12    47    48   ar
    13     1     2    1
    14     2     3   ar
    15     3     4   ar
    16     4     5    1
    17     4     6   ar
    18     6     7   ar
    19     7     9    1
    20     9    10    1
    21    10    11    1
    22    10    12    1
    23    10    13    1
    24    13    14    1
    25    13    15    1
    26     7     8   ar
    27     1    16    1
    28    16    17   ar
    29    17    18   ar
    30    18    19   ar
    31    19    20    1
    32    19    21   ar
    33    21    22   ar
    34    28    31    1
    35    31    32    1
    36    31    34    1
    37    34    35    1
    38    34    36    1
    39    34    37    1
    40    31    38    1
    41    38    39    1
    42    38    40    1
    43    38    41    1
    44    48    43   ar
    45     8     2   ar
    46    22    16   ar
    47    27    29    1
    48    27    30    1
    49    25    26    1
    50    32    33    1
@<TRIPOS>MOLECULE
*****
 48 50 0 0 0
SMALL
GASTEIGER

@<TRIPOS>ATOM
      1 C         139.9503  141.9998  160.9885 C.3     1  UNL1        0.1152
      2 C         141.1490  141.2311  160.5168 C.ar    1  UNL1        0.0046
      3 C         141.1523  140.6106  159.1512 C.ar    1  UNL1        0.0275
      4 C         142.3508  139.8420  158.6795 C.ar    1  UNL1        0.1429
      5 F         142.3541  139.2215  157.3139 F       1  UNL1       -0.2041
      6 C         143.5462  139.6938  159.5735 C.ar    1  UNL1        0.0667
      7 C         143.5429  140.3143  160.9391 C.ar    1  UNL1        0.1461
      8 C         142.3443  141.0830  161.4108 C.ar    1  UNL1        0.0349
      9 O         144.7383  140.1661  161.8331 O.3     1  UNL1       -0.4263
     10 C         144.5653  139.6839  163.2429 C.3     1  UNL1        0.4723
     11 F         145.3960  140.8309  163.7371 F       1  UNL1       -0.1579
     12 F         143.7347  138.5369  162.7486 F       1  UNL1       -0.1579
     13 C         144.3924  139.2017  164.6526 C.3     1  UNL1        0.4202
     14 F         145.5746  138.6886  165.4202 F       1  UNL1       -0.1876
     15 F         143.0372  139.2325  165.2950 F       1  UNL1       -0.1876
     16 C         140.1787  143.0174  159.9105 C.ar    1  UNL1        0.0792
     17 C         141.3028  144.0028  160.0353 C.ar    1  UNL1        0.0175
     18 C         141.5312  145.0205  158.9572 C.ar    1  UNL1        0.0142
     19 C         140.6356  145.0528  157.7544 C.ar    1  UNL1        0.0768
     20 CL        140.8640  146.0704  156.6763 Cl      1  UNL1       -0.0806
     21 C         139.5116  144.0674  157.6296 C.ar    1  UNL1        0.1098
     22 N         139.2831  143.0498  158.7076 N.ar    1  UNL1       -0.2454
     23 C         138.7912  139.8306  161.8258 C.2     1  UNL1        0.2399
     24 O         138.3431  139.6005  161.2080 O.2     1  UNL1       -0.2736
     25 N         139.7218  140.9821  162.0665 N.am    1  UNL1       -0.2978
     26 H         140.1827  141.0700  162.9321 H       1  UNL1        0.1500
     27 N         138.1928  137.4624  162.3661 N.3     1  UNL1       -0.3126
     28 C         138.5628  138.8129  162.9038 C.3     1  UNL1        0.1699
     29 H         138.1674  137.4975  161.3470 H       1  UNL1        0.1193
     30 H         137.2742  137.1954  162.7201 H       1  UNL1        0.1193
     31 C         138.7126  139.2006  164.3452 C.3     1  UNL1        0.2849
     32 O         137.7512  140.3337  164.1404 O.3     1  UNL1       -0.3715
     33 H         137.4526  140.3416  163.2175 H       1  UNL1        0.2109
     34 C         138.8625  139.5883  165.7864 C.3     1  UNL1        0.4292
     35 F         139.0123  139.9759  167.2276 F       1  UNL1       -0.1672
     36 F         137.4839  139.1933  166.2262 F       1  UNL1       -0.1672
     37 F         140.2699  140.0338  165.5203 F       1  UNL1       -0.1672
     38 C         139.6740  138.0676  164.5500 C.3     1  UNL1        0.4292
     39 F         140.6355  136.9345  164.7548 F       1  UNL1       -0.1672
     40 F         138.8124  137.2618  165.4763 F       1  UNL1       -0.1672
     41 F         140.7702  138.5972  163.6735 F       1  UNL1       -0.1672
     42 C         138.7517  142.7684  161.4601 C.3     1  UNL1        0.0543
     43 C         138.7844  143.4697  162.7857 C.ar    1  UNL1       -0.0199
     44 C         137.5116  143.6948  163.5467 C.ar    1  UNL1       -0.0042
     45 C         137.5443  144.3961  164.8723 C.ar    1  UNL1       -0.0003
     46 C         138.8499  144.8722  165.4368 C.ar    1  UNL1       -0.0000
     47 C         140.1227  144.6471  164.6758 C.ar    1  UNL1       -0.0003
     48 C         140.0900  143.9459  163.3503 C.ar    1  UNL1       -0.0042
@<TRIPOS>BOND
     1    27    28    1
     2    28    23    1
     3    23    24    2
     4    23    25   am
     5    25     1    1
     6     1    42    1
     7    42    43    1
     8    43    44   ar
     9    44    45   ar
    10    45    46   ar
    11    46    47   ar
    12    47    48   ar
    13     1     2    1
    14     2     3   ar
    15     3     4   ar
    16     4     5    1
    17     4     6   ar
    18     6     7   ar
    19     7     9    1
    20     9    10    1
    21    10    11    1
    22    10    12    1
    23    10    13    1
    24    13    14    1
    25    13    15    1
    26     7     8   ar
    27     1    16    1
    28    16    17   ar
    29    17    18   ar
    30    18    19   ar
    31    19    20    1
    32    19    21   ar
    33    21    22   ar
    34    28    31    1
    35    31    32    1
    36    31    34    1
    37    34    35    1
    38    34    36    1
    39    34    37    1
    40    31    38    1
    41    38    39    1
    42    38    40    1
    43    38    41    1
    44    48    43   ar
    45     8     2   ar
    46    22    16   ar
    47    27    29    1
    48    27    30    1
    49    25    26    1
    50    32    33    1
@<TRIPOS>MOLECULE
*****
 48 50 0 0 0
SMALL
GASTEIGER

@<TRIPOS>ATOM
      1 C         140.6716  141.3891  165.4928 C.3     1  UNL1        0.1152
      2 C         142.0510  141.7067  164.9962 C.ar    1  UNL1        0.0046
      3 C         142.7516  142.9458  165.4692 C.ar    1  UNL1        0.0275
      4 C         144.1309  143.2634  164.9727 C.ar    1  UNL1        0.1429
      5 F         144.8314  144.5026  165.4456 F       1  UNL1       -0.2041
      6 C         144.8096  142.3418  164.0032 C.ar    1  UNL1        0.0667
      7 C         144.1090  141.1027  163.5302 C.ar    1  UNL1        0.1461
      8 C         142.7297  140.7851  164.0268 C.ar    1  UNL1        0.0349
      9 O         144.7879  140.1811  162.5607 O.3     1  UNL1       -0.4263
     10 C         144.0103  139.5795  161.4278 C.3     1  UNL1        0.4723
     11 F         144.0747  140.8843  160.6907 F       1  UNL1       -0.1579
     12 F         143.9460  138.2747  162.1649 F       1  UNL1       -0.1579
     13 C         143.2328  138.9779  160.2949 C.3     1  UNL1        0.4202
     14 F         142.1383  137.9916  160.5768 F       1  UNL1       -0.1876
     15 F         143.5498  139.3625  158.8801 F       1  UNL1       -0.1876
     16 C         141.2366  141.0365  166.8368 C.ar    1  UNL1        0.0792
     17 C         142.1157  139.8305  166.9879 C.ar    1  UNL1        0.0175
     18 C         142.6807  139.4779  168.3320 C.ar    1  UNL1        0.0142
     19 C         142.3668  140.3314  169.5249 C.ar    1  UNL1        0.0768
     20 CL        142.9318  139.9788  170.8690 Cl      1  UNL1       -0.0806
     21 C         141.4877  141.5374  169.3738 C.ar    1  UNL1        0.1098
     22 N         140.9227  141.8900  168.0298 N.ar    1  UNL1       -0.2454
     23 C         139.4357  143.0673  163.9415 C.2     1  UNL1        0.2399
     24 O         139.2895  143.6936  164.4126 O.2     1  UNL1       -0.2736
     25 N         140.1065  141.7417  164.1488 N.am    1  UNL1       -0.2978
     26 H         140.1759  141.1031  163.4028 H       1  UNL1        0.1500
     27 N         137.4718  142.9162  162.3994 N.3     1  UNL1       -0.3126
     28 C         138.8707  143.4199  162.5976 C.3     1  UNL1        0.1699
     29 H         137.1675  142.4193  163.2367 H       1  UNL1        0.1193
     30 H         137.4486  142.2823  161.6006 H       1  UNL1        0.1193
     31 C         139.6966  144.1998  161.6178 C.3     1  UNL1        0.2849
     32 O         138.8608  145.4171  161.8823 O.3     1  UNL1       -0.3715
     33 H         138.1771  145.2040  162.5366 H       1  UNL1        0.2109
     34 C         140.5224  144.9797  160.6382 C.3     1  UNL1        0.4292
     35 F         141.3482  145.7596  159.6585 F       1  UNL1       -0.1672
     36 F         140.3796  144.0325  159.4839 F       1  UNL1       -0.1672
     37 F         140.7677  146.0298  161.6809 F       1  UNL1       -0.1672
     38 C         140.5323  142.9826  161.3534 C.3     1  UNL1        0.4292
     39 F         141.3681  141.7654  161.0889 F       1  UNL1       -0.1672
     40 F         141.8139  143.5132  161.9242 F       1  UNL1       -0.1672
     41 F         139.4544  142.1552  160.7180 F       1  UNL1       -0.1672
     42 C         139.2923  141.0716  165.9894 C.3     1  UNL1        0.0543
     43 C         138.8191  139.6487  166.0308 C.ar    1  UNL1       -0.0199
     44 C         137.8705  139.2047  167.1045 C.ar    1  UNL1       -0.0042
     45 C         137.3973  137.7820  167.1458 C.ar    1  UNL1       -0.0003
     46 C         137.8728  136.8031  166.1134 C.ar    1  UNL1       -0.0000
     47 C         138.8215  137.2471  165.0397 C.ar    1  UNL1       -0.0003
     48 C         139.2946  138.6699  164.9984 C.ar    1  UNL1       -0.0042
@<TRIPOS>BOND
     1    27    28    1
     2    28    23    1
     3    23    24    2
     4    23    25   am
     5    25     1    1
     6     1    42    1
     7    42    43    1
     8    43    44   ar
     9    44    45   ar
    10    45    46   ar
    11    46    47   ar
    12    47    48   ar
    13     1     2    1
    14     2     3   ar
    15     3     4   ar
    16     4     5    1
    17     4     6   ar
    18     6     7   ar
    19     7     9    1
    20     9    10    1
    21    10    11    1
    22    10    12    1
    23    10    13    1
    24    13    14    1
    25    13    15    1
    26     7     8   ar
    27     1    16    1
    28    16    17   ar
    29    17    18   ar
    30    18    19   ar
    31    19    20    1
    32    19    21   ar
    33    21    22   ar
    34    28    31    1
    35    31    32    1
    36    31    34    1
    37    34    35    1
    38    34    36    1
    39    34    37    1
    40    31    38    1
    41    38    39    1
    42    38    40    1
    43    38    41    1
    44    48    43   ar
    45     8     2   ar
    46    22    16   ar
    47    27    29    1
    48    27    30    1
    49    25    26    1
    50    32    33    1
@<TRIPOS>MOLECULE
*****
 48 50 0 0 0
SMALL
GASTEIGER

@<TRIPOS>ATOM
      1 C         141.8856  142.2948  160.3601 C.3     1  UNL1        0.1152
      2 C         141.0484  141.1080  159.9848 C.ar    1  UNL1        0.0046
      3 C         140.3170  141.0901  158.6754 C.ar    1  UNL1        0.0275
      4 C         139.4799  139.9034  158.3001 C.ar    1  UNL1        0.1429
      5 F         138.7485  139.8855  156.9906 F       1  UNL1       -0.2041
      6 C         139.3742  138.7346  159.2342 C.ar    1  UNL1        0.0667
      7 C         140.1056  138.7525  160.5437 C.ar    1  UNL1        0.1461
      8 C         140.9427  139.9392  160.9190 C.ar    1  UNL1        0.0349
      9 O         139.9999  137.5836  161.4779 O.3     1  UNL1       -0.4263
     10 C         139.8143  137.8133  162.9485 C.3     1  UNL1        0.4723
     11 F         141.0524  137.0144  163.2294 F       1  UNL1       -0.1579
     12 F         138.5762  138.6121  162.6675 F       1  UNL1       -0.1579
     13 C         139.6288  138.0429  164.4191 C.3     1  UNL1        0.4202
     14 F         140.3620  139.1589  165.1023 F       1  UNL1       -0.1876
     15 F         138.7099  137.1564  165.2066 F       1  UNL1       -0.1876
     16 C         142.8282  141.9856  159.2351 C.ar    1  UNL1        0.0792
     17 C         143.5820  140.6888  159.2232 C.ar    1  UNL1        0.0175
     18 C         144.5247  140.3795  158.0981 C.ar    1  UNL1        0.0142
     19 C         144.7136  141.3671  156.9850 C.ar    1  UNL1        0.0768
     20 CL        145.6563  141.0579  155.8599 Cl      1  UNL1       -0.0806
     21 C         143.9599  142.6639  156.9970 C.ar    1  UNL1        0.1098
     22 N         143.0172  142.9732  158.1220 N.ar    1  UNL1       -0.2454
     23 C         139.7893  143.5366  161.2622 C.2     1  UNL1        0.2399
     24 O         139.5249  143.9502  160.6341 O.2     1  UNL1       -0.2736
     25 N         140.9429  142.6041  161.4852 N.am    1  UNL1       -0.2978
     26 H         141.0813  142.1950  162.3699 H       1  UNL1        0.1500
     27 N         138.3442  145.2589  162.3592 N.3     1  UNL1       -0.3126
     28 C         138.8467  143.8459  162.3872 C.3     1  UNL1        0.1699
     29 H         138.7501  145.7484  161.5617 H       1  UNL1        0.1193
     30 H         138.6131  145.7325  163.2216 H       1  UNL1        0.1193
     31 C         138.5015  142.7847  163.3897 C.3     1  UNL1        0.2849
     32 O         138.3074  141.7971  162.2775 O.3     1  UNL1       -0.3715
     33 H         138.4760  142.2312  161.4266 H       1  UNL1        0.2109
     34 C         138.1564  141.7236  164.3921 C.3     1  UNL1        0.4292
     35 F         137.8112  140.6625  165.3945 F       1  UNL1       -0.1672
     36 F         139.3309  141.9403  165.2995 F       1  UNL1       -0.1672
     37 F         136.9305  141.3749  163.6010 F       1  UNL1       -0.1672
     38 C         138.6956  143.7722  164.5019 C.3     1  UNL1        0.4292
     39 F         138.8897  144.7598  165.6142 F       1  UNL1       -0.1672
     40 F         137.2608  143.8468  164.9328 F       1  UNL1       -0.1672
     41 F         140.1779  143.9385  164.3423 F       1  UNL1       -0.1672
     42 C         142.7227  143.4815  160.7354 C.3     1  UNL1        0.0543
     43 C         143.3256  143.5709  162.1060 C.ar    1  UNL1       -0.0199
     44 C         144.1395  142.4312  162.6431 C.ar    1  UNL1       -0.0042
     45 C         144.7423  142.5206  164.0137 C.ar    1  UNL1       -0.0003
     46 C         144.5312  143.7497  164.8472 C.ar    1  UNL1       -0.0000
     47 C         143.7172  144.8894  164.3102 C.ar    1  UNL1       -0.0003
     48 C         143.1144  144.8000  162.9396 C.ar    1  UNL1       -0.0042
@<TRIPOS>BOND
     1    27    28    1
     2    28    23    1
     3    23    24    2
     4    23    25   am
     5    25     1    1
     6     1    42    1
     7    42    43    1
     8    43    44   ar
     9    44    45   ar
    10    45    46   ar
    11    46    47   ar
    12    47    48   ar
    13     1     2    1
    14     2     3   ar
    15     3     4   ar
    16     4     5    1
    17     4     6   ar
    18     6     7   ar
    19     7     9    1
    20     9    10    1
    21    10    11    1
    22    10    12    1
    23    10    13    1
    24    13    14    1
    25    13    15    1
    26     7     8   ar
    27     1    16    1
    28    16    17   ar
    29    17    18   ar
    30    18    19   ar
    31    19    20    1
    32    19    21   ar
    33    21    22   ar
    34    28    31    1
    35    31    32    1
    36    31    34    1
    37    34    35    1
    38    34    36    1
    39    34    37    1
    40    31    38    1
    41    38    39    1
    42    38    40    1
    43    38    41    1
    44    48    43   ar
    45     8     2   ar
    46    22    16   ar
    47    27    29    1
    48    27    30    1
    49    25    26    1
    50    32    33    1
@<TRIPOS>MOLECULE
*****
 48 50 0 0 0
SMALL
GASTEIGER

@<TRIPOS>ATOM
      1 C         142.1684  141.8943  165.0309 C.3     1  UNL1        0.1152
      2 C         142.1804  140.3950  165.0777 C.ar    1  UNL1        0.0046
      3 C         143.2115  139.6785  165.8983 C.ar    1  UNL1        0.0275
      4 C         143.2235  138.1793  165.9451 C.ar    1  UNL1        0.1429
      5 F         144.2547  137.4628  166.7657 F       1  UNL1       -0.2041
      6 C         142.2044  137.3966  165.1714 C.ar    1  UNL1        0.0667
      7 C         141.1733  138.1131  164.3508 C.ar    1  UNL1        0.1461
      8 C         141.1613  139.6123  164.3039 C.ar    1  UNL1        0.0349
      9 O         140.1541  137.3304  163.5770 O.3     1  UNL1       -0.4263
     10 C         139.4810  137.9464  162.3865 C.3     1  UNL1        0.4723
     11 F         138.2582  138.2099  163.2143 F       1  UNL1       -0.1579
     12 F         140.7037  137.6829  161.5587 F       1  UNL1       -0.1579
     13 C         138.8078  138.5624  161.1960 C.3     1  UNL1        0.4202
     14 F         137.4619  139.2076  161.3459 F       1  UNL1       -0.1876
     15 F         139.4804  138.5333  159.8556 F       1  UNL1       -0.1876
     16 C         141.8482  141.9374  166.4957 C.ar    1  UNL1        0.0792
     17 C         140.4805  141.5518  166.9761 C.ar    1  UNL1        0.0175
     18 C         140.1603  141.5949  168.4409 C.ar    1  UNL1        0.0142
     19 C         141.2078  142.0236  169.4253 C.ar    1  UNL1        0.0768
     20 CL        140.8876  142.0668  170.8901 Cl      1  UNL1       -0.0806
     21 C         142.5754  142.4093  168.9448 C.ar    1  UNL1        0.1098
     22 N         142.8956  142.3662  167.4801 N.ar    1  UNL1       -0.2454
     23 C         143.9170  141.8835  163.1094 C.2     1  UNL1        0.2399
     24 O         144.6183  141.9217  163.4866 O.2     1  UNL1       -0.2736
     25 N         142.4886  141.8512  163.5661 N.am    1  UNL1       -0.2978
     26 H         141.7612  141.8017  162.9045 H       1  UNL1        0.1500
     27 N         145.2448  142.8731  161.2343 N.3     1  UNL1       -0.3126
     28 C         144.2372  141.8404  161.6446 C.3     1  UNL1        0.1699
     29 H         145.5244  143.4182  162.0498 H       1  UNL1        0.1193
     30 H         144.8322  143.4923  160.5366 H       1  UNL1        0.1193
     31 C         143.5671  140.8314  160.7598 C.3     1  UNL1        0.2849
     32 O         143.7755  139.7761  161.8052 O.3     1  UNL1       -0.3715
     33 H         144.2290  140.1638  162.5700 H       1  UNL1        0.2109
     34 C         142.8969  139.8225  159.8750 C.3     1  UNL1        0.4292
     35 F         142.2268  138.8135  158.9902 F       1  UNL1       -0.1672
     36 F         141.6253  140.5872  159.6562 F       1  UNL1       -0.1672
     37 F         144.0959  138.9280  159.9868 F       1  UNL1       -0.1672
     38 C         143.3586  141.8867  159.7143 C.3     1  UNL1        0.4292
     39 F         143.1501  142.9420  158.6689 F       1  UNL1       -0.1672
     40 F         144.2772  141.3047  158.6813 F       1  UNL1       -0.1672
     41 F         142.3890  142.7260  160.4926 F       1  UNL1       -0.1672
     42 C         142.1564  143.3935  164.9841 C.3     1  UNL1        0.0543
     43 C         141.1487  144.1093  164.1342 C.ar    1  UNL1       -0.0199
     44 C         139.6828  143.8866  164.3609 C.ar    1  UNL1       -0.0042
     45 C         138.6752  144.6025  163.5111 C.ar    1  UNL1       -0.0003
     46 C         139.1336  145.5410  162.4345 C.ar    1  UNL1       -0.0000
     47 C         140.5995  145.7637  162.2077 C.ar    1  UNL1       -0.0003
     48 C         141.6071  145.0479  163.0576 C.ar    1  UNL1       -0.0042
@<TRIPOS>BOND
     1    27    28    1
     2    28    23    1
     3    23    24    2
     4    23    25   am
     5    25     1    1
     6     1    42    1
     7    42    43    1
     8    43    44   ar
     9    44    45   ar
    10    45    46   ar
    11    46    47   ar
    12    47    48   ar
    13     1     2    1
    14     2     3   ar
    15     3     4   ar
    16     4     5    1
    17     4     6   ar
    18     6     7   ar
    19     7     9    1
    20     9    10    1
    21    10    11    1
    22    10    12    1
    23    10    13    1
    24    13    14    1
    25    13    15    1
    26     7     8   ar
    27     1    16    1
    28    16    17   ar
    29    17    18   ar
    30    18    19   ar
    31    19    20    1
    32    19    21   ar
    33    21    22   ar
    34    28    31    1
    35    31    32    1
    36    31    34    1
    37    34    35    1
    38    34    36    1
    39    34    37    1
    40    31    38    1
    41    38    39    1
    42    38    40    1
    43    38    41    1
    44    48    43   ar
    45     8     2   ar
    46    22    16   ar
    47    27    29    1
    48    27    30    1
    49    25    26    1
    50    32    33    1
