@<TRIPOS>MOLECULE
*****
 30 32 0 0 0
SMALL
GASTEIGER

@<TRIPOS>ATOM
      1 C         142.0844  143.5360  163.2423 C.ar    1  UNL1        0.1690
      2 N         141.5504  143.0796  164.5676 N.ar    1  UNL1       -0.2226
      3 C         142.0922  141.8351  165.2062 C.ar    1  UNL1        0.0878
      4 C         143.1680  141.0471  164.5194 C.ar    1  UNL1        0.0628
      5 C         143.8912  139.7900  164.9025 C.ar    1  UNL1        0.0919
      6 C         144.8721  139.4696  163.8139 C.ar    1  UNL1        0.1109
      7 N         144.7552  140.5286  162.7581 N.ar    1  UNL1       -0.2262
      8 C         143.7020  141.5036  163.1941 C.ar    1  UNL1        0.1441
      9 N         143.1602  142.7480  162.5555 N.ar    1  UNL1       -0.3189
     10 H         143.5106  143.0476  161.6857 H       1  UNL1        0.1693
     11 C         141.5581  141.3787  166.5316 C.ar    1  UNL1        0.0315
     12 C         140.3119  140.5461  166.5915 C.ar    1  UNL1        0.0401
     13 C         139.7778  140.0896  167.9168 C.ar    1  UNL1        0.1493
     14 C         140.4900  140.4659  169.1821 C.ar    1  UNL1        0.0924
     15 CL        139.9559  140.0094  170.5074 Cl      1  UNL1       -0.0791
     16 C         141.7362  141.2985  169.1222 C.ar    1  UNL1        0.0259
     17 C         142.2703  141.7549  167.7969 C.ar    1  UNL1        0.0601
     18 CL        143.5166  142.5875  167.7371 Cl      1  UNL1       -0.0822
     19 O         138.5315  139.2570  167.9766 O.3     1  UNL1       -0.4706
     20 C         137.9197  138.7307  166.7122 C.3     1  UNL1        0.2525
     21 C         143.6719  138.9933  166.1544 C.1     1  UNL1        0.1021
     22 N         143.4526  138.1966  167.4063 N.1     1  UNL1       -0.1908
     23 S         141.5426  144.7805  162.6037 S.3     1  UNL1       -0.0761
     24 C         140.2585  144.7285  161.8302 C.3     1  UNL1        0.0824
     25 C         138.9603  145.0499  162.5095 C.3     1  UNL1        0.0843
     26 N         138.1927  143.9684  163.2105 N.3     1  UNL1       -0.2719
     27 C         138.6438  144.9241  165.5840 C.3     1  UNL1        0.0188
     28 C         137.7714  144.1528  164.6383 C.3     1  UNL1        0.0722
     29 C         137.8466  142.7027  162.4839 C.3     1  UNL1        0.0722
     30 C         137.5508  141.4513  163.2562 C.3     1  UNL1        0.0188
@<TRIPOS>BOND
     1    27    28    1
     2    28    26    1
     3    26    29    1
     4    29    30    1
     5    26    25    1
     6    25    24    1
     7    24    23    1
     8    23     1    1
     9     1     2   ar
    10     2     3   ar
    11     3    11    1
    12    11    12   ar
    13    12    13   ar
    14    13    19    1
    15    19    20    1
    16    13    14   ar
    17    14    15    1
    18    14    16   ar
    19    16    17   ar
    20    17    18    1
    21     3     4   ar
    22     4     5   ar
    23     5    21    1
    24    21    22    3
    25     5     6   ar
    26     6     7   ar
    27     7     8   ar
    28     8     9   ar
    29     9     1   ar
    30    17    11   ar
    31     8     4    1
    32     9    10    1
@<TRIPOS>MOLECULE
*****
 30 32 0 0 0
SMALL
GASTEIGER

@<TRIPOS>ATOM
      1 C         141.8243  143.2858  162.7836 C.ar    1  UNL1        0.1690
      2 N         141.1554  142.9043  164.0707 N.ar    1  UNL1       -0.2226
      3 C         141.7332  141.8123  164.9215 C.ar    1  UNL1        0.0878
      4 C         142.9800  141.1018  164.4849 C.ar    1  UNL1        0.0628
      5 C         143.7752  139.9942  165.1101 C.ar    1  UNL1        0.0919
      6 C         144.9357  139.6912  164.2093 C.ar    1  UNL1        0.1109
      7 N         144.8577  140.6115  163.0274 N.ar    1  UNL1       -0.2262
      8 C         143.6490  141.4833  163.1977 C.ar    1  UNL1        0.1441
      9 N         143.0712  142.5753  162.3471 N.ar    1  UNL1       -0.3189
     10 H         143.5103  142.8257  161.5022 H       1  UNL1        0.1693
     11 C         141.0641  141.4308  166.2087 C.ar    1  UNL1        0.0315
     12 C         141.3646  142.1936  167.4648 C.ar    1  UNL1        0.0401
     13 C         140.6956  141.8122  168.7521 C.ar    1  UNL1        0.1493
     14 C         139.7261  140.6680  168.7831 C.ar    1  UNL1        0.0924
     15 CL        139.0571  140.2866  170.0703 Cl      1  UNL1       -0.0791
     16 C         139.4256  139.9053  167.5269 C.ar    1  UNL1        0.0259
     17 C         140.0947  140.2867  166.2397 C.ar    1  UNL1        0.0601
     18 CL        139.7942  139.5239  164.9836 Cl      1  UNL1       -0.0822
     19 O         140.9960  142.5750  170.0082 O.3     1  UNL1       -0.4706
     20 C         142.0688  142.0936  170.9395 C.3     1  UNL1        0.2525
     21 C         143.4645  139.3098  166.4082 C.1     1  UNL1        0.1021
     22 N         143.1538  138.6254  167.7063 N.1     1  UNL1       -0.1908
     23 S         141.2465  144.3778  161.9329 S.3     1  UNL1       -0.0761
     24 C         140.3426  145.4065  162.5450 C.3     1  UNL1        0.0824
     25 C         138.8540  145.2545  162.4401 C.3     1  UNL1        0.0843
     26 N         138.1672  144.1090  163.1230 N.3     1  UNL1       -0.2719
     27 C         138.6499  144.9588  165.5303 C.3     1  UNL1        0.0188
     28 C         137.7671  144.2258  164.5640 C.3     1  UNL1        0.0722
     29 C         137.8804  142.8469  162.3650 C.3     1  UNL1        0.0722
     30 C         137.4669  141.6072  163.1013 C.3     1  UNL1        0.0188
@<TRIPOS>BOND
     1    27    28    1
     2    28    26    1
     3    26    29    1
     4    29    30    1
     5    26    25    1
     6    25    24    1
     7    24    23    1
     8    23     1    1
     9     1     2   ar
    10     2     3   ar
    11     3    11    1
    12    11    12   ar
    13    12    13   ar
    14    13    19    1
    15    19    20    1
    16    13    14   ar
    17    14    15    1
    18    14    16   ar
    19    16    17   ar
    20    17    18    1
    21     3     4   ar
    22     4     5   ar
    23     5    21    1
    24    21    22    3
    25     5     6   ar
    26     6     7   ar
    27     7     8   ar
    28     8     9   ar
    29     9     1   ar
    30    17    11   ar
    31     8     4    1
    32     9    10    1
@<TRIPOS>MOLECULE
*****
 30 32 0 0 0
SMALL
GASTEIGER

@<TRIPOS>ATOM
      1 C         142.1376  143.6496  161.5616 C.ar    1  UNL1        0.1690
      2 N         141.2136  142.7494  162.3268 N.ar    1  UNL1       -0.2226
      3 C         141.7739  141.6546  163.1858 C.ar    1  UNL1        0.0878
      4 C         143.2583  141.4603  163.2794 C.ar    1  UNL1        0.0628
      5 C         144.0955  140.4742  164.0388 C.ar    1  UNL1        0.0919
      6 C         145.5369  140.7651  163.7429 C.ar    1  UNL1        0.1109
      7 N         145.5906  141.9309  162.8006 N.ar    1  UNL1       -0.2262
      8 C         144.1823  142.3605  162.5140 C.ar    1  UNL1        0.1441
      9 N         143.6220  143.4552  161.6552 N.ar    1  UNL1       -0.3189
     10 H         144.2285  144.0461  161.1529 H       1  UNL1        0.1693
     11 C         140.8498  140.7544  163.9511 C.ar    1  UNL1        0.0315
     12 C         140.1644  139.6163  163.2546 C.ar    1  UNL1        0.0401
     13 C         139.2403  138.7161  164.0198 C.ar    1  UNL1        0.1493
     14 C         139.0016  138.9539  165.4814 C.ar    1  UNL1        0.0924
     15 CL        138.0775  138.0536  166.2466 Cl      1  UNL1       -0.0791
     16 C         139.6870  140.0920  166.1779 C.ar    1  UNL1        0.0259
     17 C         140.6111  140.9922  165.4127 C.ar    1  UNL1        0.0601
     18 CL        141.2965  142.1303  166.1092 Cl      1  UNL1       -0.0822
     19 O         138.5549  137.5780  163.3233 O.3     1  UNL1       -0.4706
     20 C         137.9988  137.7689  161.9433 C.3     1  UNL1        0.2525
     21 C         143.5815  139.3880  164.9366 C.1     1  UNL1        0.1021
     22 N         143.0674  138.3018  165.8344 N.1     1  UNL1       -0.1908
     23 S         141.5773  144.7443  160.7027 S.3     1  UNL1       -0.0761
     24 C         140.1505  145.1749  160.8725 C.3     1  UNL1        0.0824
     25 C         139.6946  145.7634  162.1747 C.3     1  UNL1        0.0843
     26 N         138.9950  144.9013  163.1834 N.3     1  UNL1       -0.2719
     27 C         137.7007  142.6486  163.1798 C.3     1  UNL1        0.0188
     28 C         137.8006  144.0901  162.7768 C.3     1  UNL1        0.0722
     29 C         139.4897  144.8505  164.5985 C.3     1  UNL1        0.0722
     30 C         138.5271  145.0206  165.7362 C.3     1  UNL1        0.0188
@<TRIPOS>BOND
     1    27    28    1
     2    28    26    1
     3    26    29    1
     4    29    30    1
     5    26    25    1
     6    25    24    1
     7    24    23    1
     8    23     1    1
     9     1     2   ar
    10     2     3   ar
    11     3    11    1
    12    11    12   ar
    13    12    13   ar
    14    13    19    1
    15    19    20    1
    16    13    14   ar
    17    14    15    1
    18    14    16   ar
    19    16    17   ar
    20    17    18    1
    21     3     4   ar
    22     4     5   ar
    23     5    21    1
    24    21    22    3
    25     5     6   ar
    26     6     7   ar
    27     7     8   ar
    28     8     9   ar
    29     9     1   ar
    30    17    11   ar
    31     8     4    1
    32     9    10    1
@<TRIPOS>MOLECULE
*****
 30 32 0 0 0
SMALL
GASTEIGER

@<TRIPOS>ATOM
      1 C         138.8990  140.0771  163.3607 C.ar    1  UNL1        0.1690
      2 N         138.8473  140.6204  164.7578 N.ar    1  UNL1       -0.2226
      3 C         139.9516  140.3103  165.7246 C.ar    1  UNL1        0.0878
      4 C         141.1075  139.4568  165.2941 C.ar    1  UNL1        0.0628
      5 C         142.3325  138.9858  166.0203 C.ar    1  UNL1        0.0919
      6 C         143.1413  138.1513  165.0720 C.ar    1  UNL1        0.1109
      7 N         142.4162  138.1065  163.7596 N.ar    1  UNL1       -0.2262
      8 C         141.1592  138.9134  163.8969 C.ar    1  UNL1        0.1441
      9 N         140.0550  139.2235  162.9302 N.ar    1  UNL1       -0.3189
     10 H         140.0889  138.8669  162.0132 H       1  UNL1        0.1693
     11 C         139.8998  140.8538  167.1217 C.ar    1  UNL1        0.0315
     12 C         139.3054  140.0299  168.2253 C.ar    1  UNL1        0.0401
     13 C         139.2536  140.5733  169.6225 C.ar    1  UNL1        0.1493
     14 C         139.7962  141.9405  169.9160 C.ar    1  UNL1        0.0924
     15 CL        139.7444  142.4839  171.3131 Cl      1  UNL1       -0.0791
     16 C         140.3906  142.7644  168.8124 C.ar    1  UNL1        0.0259
     17 C         140.4424  142.2210  167.4152 C.ar    1  UNL1        0.0601
     18 CL        141.0368  143.0449  166.3117 Cl      1  UNL1       -0.0822
     19 O         138.6592  139.7494  170.7261 O.3     1  UNL1       -0.4706
     20 C         137.1971  139.4146  170.7080 C.3     1  UNL1        0.2525
     21 C         142.6866  139.2950  167.4448 C.1     1  UNL1        0.1021
     22 N         143.0406  139.6042  168.8692 N.1     1  UNL1       -0.1908
     23 S         137.7948  140.3872  162.3939 S.3     1  UNL1       -0.0761
     24 C         137.9851  141.4517  161.3545 C.3     1  UNL1        0.0824
     25 C         137.9684  142.8983  161.7507 C.3     1  UNL1        0.0843
     26 N         139.1670  143.5077  162.4158 N.3     1  UNL1       -0.2719
     27 C         137.9306  144.0985  164.6231 C.3     1  UNL1        0.0188
     28 C         138.9898  144.4037  163.6056 C.3     1  UNL1        0.0722
     29 C         140.5426  143.2211  161.8909 C.3     1  UNL1        0.0722
     30 C         141.5764  142.6109  162.7902 C.3     1  UNL1        0.0188
@<TRIPOS>BOND
     1    27    28    1
     2    28    26    1
     3    26    29    1
     4    29    30    1
     5    26    25    1
     6    25    24    1
     7    24    23    1
     8    23     1    1
     9     1     2   ar
    10     2     3   ar
    11     3    11    1
    12    11    12   ar
    13    12    13   ar
    14    13    19    1
    15    19    20    1
    16    13    14   ar
    17    14    15    1
    18    14    16   ar
    19    16    17   ar
    20    17    18    1
    21     3     4   ar
    22     4     5   ar
    23     5    21    1
    24    21    22    3
    25     5     6   ar
    26     6     7   ar
    27     7     8   ar
    28     8     9   ar
    29     9     1   ar
    30    17    11   ar
    31     8     4    1
    32     9    10    1
@<TRIPOS>MOLECULE
*****
 30 32 0 0 0
SMALL
GASTEIGER

@<TRIPOS>ATOM
      1 C         140.5979  141.6985  161.9389 C.ar    1  UNL1        0.1690
      2 N         140.1341  141.5771  163.3601 N.ar    1  UNL1       -0.2226
      3 C         140.9810  140.8558  164.3665 C.ar    1  UNL1        0.0878
      4 C         142.2917  140.2561  163.9515 C.ar    1  UNL1        0.0628
      5 C         143.3331  139.4932  164.7154 C.ar    1  UNL1        0.0919
      6 C         144.4406  139.1432  163.7662 C.ar    1  UNL1        0.1109
      7 N         144.0836  139.6897  162.4157 N.ar    1  UNL1       -0.2262
      8 C         142.7556  140.3776  162.5302 C.ar    1  UNL1        0.1441
      9 N         141.9087  141.0988  161.5239 N.ar    1  UNL1       -0.3189
     10 H         142.2131  141.1785  160.5911 H       1  UNL1        0.1693
     11 C         140.5170  140.7344  165.7878 C.ar    1  UNL1        0.0315
     12 C         141.0435  141.6744  166.8315 C.ar    1  UNL1        0.0401
     13 C         140.5796  141.5531  168.2528 C.ar    1  UNL1        0.1493
     14 C         139.5893  140.4917  168.6304 C.ar    1  UNL1        0.0924
     15 CL        139.1254  140.3704  170.0517 Cl      1  UNL1       -0.0791
     16 C         139.0628  139.5517  167.5867 C.ar    1  UNL1        0.0259
     17 C         139.5267  139.6730  166.1654 C.ar    1  UNL1        0.0601
     18 CL        139.0003  138.7330  165.1218 Cl      1  UNL1       -0.0822
     19 O         141.1061  142.4931  169.2964 O.3     1  UNL1       -0.4706
     20 C         140.3435  143.7392  169.6366 C.3     1  UNL1        0.2525
     21 C         143.2769  139.1420  166.1727 C.1     1  UNL1        0.1021
     22 N         143.2206  138.7909  167.6299 N.1     1  UNL1       -0.1908
     23 S         139.7511  142.4197  160.9326 S.3     1  UNL1       -0.0761
     24 C         139.8913  143.9031  160.7599 C.3     1  UNL1        0.0824
     25 C         140.9737  144.6439  161.4876 C.3     1  UNL1        0.0843
     26 N         140.7878  145.0192  162.9280 N.3     1  UNL1       -0.2719
     27 C         139.1110  144.7069  164.8879 C.3     1  UNL1        0.0188
     28 C         139.4058  145.1692  163.4916 C.3     1  UNL1        0.0722
     29 C         141.9838  145.2445  163.8047 C.3     1  UNL1        0.0722
     30 C         142.8953  144.1008  164.1383 C.3     1  UNL1        0.0188
@<TRIPOS>BOND
     1    27    28    1
     2    28    26    1
     3    26    29    1
     4    29    30    1
     5    26    25    1
     6    25    24    1
     7    24    23    1
     8    23     1    1
     9     1     2   ar
    10     2     3   ar
    11     3    11    1
    12    11    12   ar
    13    12    13   ar
    14    13    19    1
    15    19    20    1
    16    13    14   ar
    17    14    15    1
    18    14    16   ar
    19    16    17   ar
    20    17    18    1
    21     3     4   ar
    22     4     5   ar
    23     5    21    1
    24    21    22    3
    25     5     6   ar
    26     6     7   ar
    27     7     8   ar
    28     8     9   ar
    29     9     1   ar
    30    17    11   ar
    31     8     4    1
    32     9    10    1
@<TRIPOS>MOLECULE
*****
 30 32 0 0 0
SMALL
GASTEIGER

@<TRIPOS>ATOM
      1 C         142.2855  143.6038  163.3102 C.ar    1  UNL1        0.1690
      2 N         141.2731  142.8479  164.1186 N.ar    1  UNL1       -0.2226
      3 C         141.3480  141.3522  164.2054 C.ar    1  UNL1        0.0878
      4 C         142.4353  140.6126  163.4838 C.ar    1  UNL1        0.0628
      5 C         142.7605  139.1516  163.3851 C.ar    1  UNL1        0.0919
      6 C         143.9740  139.0047  162.5156 C.ar    1  UNL1        0.1109
      7 N         144.3987  140.3749  162.0770 N.ar    1  UNL1       -0.2262
      8 C         143.4477  141.3686  162.6754 C.ar    1  UNL1        0.1441
      9 N         143.3728  142.8642  162.5886 N.ar    1  UNL1       -0.3189
     10 H         144.0372  143.3604  162.0580 H       1  UNL1        0.1693
     11 C         140.3355  140.5962  165.0139 C.ar    1  UNL1        0.0315
     12 C         140.4944  140.4862  166.5014 C.ar    1  UNL1        0.0401
     13 C         139.4820  139.7303  167.3099 C.ar    1  UNL1        0.1493
     14 C         138.3108  139.0845  166.6308 C.ar    1  UNL1        0.0924
     15 CL        137.2984  138.3286  167.4394 Cl      1  UNL1       -0.0791
     16 C         138.1519  139.1945  165.1434 C.ar    1  UNL1        0.0259
     17 C         139.1643  139.9504  164.3348 C.ar    1  UNL1        0.0601
     18 CL        139.0054  140.0605  162.8473 Cl      1  UNL1       -0.0822
     19 O         139.6409  139.6202  168.7974 O.3     1  UNL1       -0.4706
     20 C         139.3453  140.8020  169.6727 C.3     1  UNL1        0.2525
     21 C         142.0050  138.0339  164.0406 C.1     1  UNL1        0.1021
     22 N         141.2495  136.9161  164.6962 N.1     1  UNL1       -0.1908
     23 S         142.2106  145.0995  163.2234 S.3     1  UNL1       -0.0761
     24 C         140.8757  145.7827  163.1878 C.3     1  UNL1        0.0824
     25 C         139.9546  145.5689  162.0234 C.3     1  UNL1        0.0843
     26 N         138.9889  144.4211  162.0320 N.3     1  UNL1       -0.2719
     27 C         139.8816  143.4846  159.7790 C.3     1  UNL1        0.0188
     28 C         139.1830  143.2707  161.0891 C.3     1  UNL1        0.0722
     29 C         137.8292  144.4237  162.9833 C.3     1  UNL1        0.0722
     30 C         137.7723  143.4229  164.0992 C.3     1  UNL1        0.0188
@<TRIPOS>BOND
     1    27    28    1
     2    28    26    1
     3    26    29    1
     4    29    30    1
     5    26    25    1
     6    25    24    1
     7    24    23    1
     8    23     1    1
     9     1     2   ar
    10     2     3   ar
    11     3    11    1
    12    11    12   ar
    13    12    13   ar
    14    13    19    1
    15    19    20    1
    16    13    14   ar
    17    14    15    1
    18    14    16   ar
    19    16    17   ar
    20    17    18    1
    21     3     4   ar
    22     4     5   ar
    23     5    21    1
    24    21    22    3
    25     5     6   ar
    26     6     7   ar
    27     7     8   ar
    28     8     9   ar
    29     9     1   ar
    30    17    11   ar
    31     8     4    1
    32     9    10    1
@<TRIPOS>MOLECULE
*****
 30 32 0 0 0
SMALL
GASTEIGER

@<TRIPOS>ATOM
      1 C         142.0476  142.9483  160.9828 C.ar    1  UNL1        0.1690
      2 N         141.1869  141.9819  161.7410 N.ar    1  UNL1       -0.2226
      3 C         141.8015  141.0727  162.7637 C.ar    1  UNL1        0.0878
      4 C         143.2769  141.1301  163.0280 C.ar    1  UNL1        0.0628
      5 C         144.1585  140.3638  163.9691 C.ar    1  UNL1        0.0919
      6 C         145.5641  140.8567  163.7924 C.ar    1  UNL1        0.1109
      7 N         145.5513  141.9277  162.7422 N.ar    1  UNL1       -0.2262
      8 C         144.1377  142.0967  162.2698 C.ar    1  UNL1        0.1441
      9 N         143.5230  143.0057  161.2472 N.ar    1  UNL1       -0.3189
     10 H         144.0880  143.6401  160.7495 H       1  UNL1        0.1693
     11 C         140.9406  140.1062  163.5219 C.ar    1  UNL1        0.0315
     12 C         140.3301  140.5126  164.8303 C.ar    1  UNL1        0.0401
     13 C         139.4693  139.5461  165.5886 C.ar    1  UNL1        0.1493
     14 C         139.2190  138.1734  165.0383 C.ar    1  UNL1        0.0924
     15 CL        138.3582  137.2069  165.7966 Cl      1  UNL1       -0.0791
     16 C         139.8295  137.7670  163.7299 C.ar    1  UNL1        0.0259
     17 C         140.6904  138.7334  162.9716 C.ar    1  UNL1        0.0601
     18 CL        141.3009  138.3271  161.6631 Cl      1  UNL1       -0.0822
     19 O         138.8587  139.9525  166.8971 O.3     1  UNL1       -0.4706
     20 C         139.7006  139.9902  168.1380 C.3     1  UNL1        0.2525
     21 C         143.7127  139.2926  164.9198 C.1     1  UNL1        0.1021
     22 N         143.2669  138.2215  165.8706 N.1     1  UNL1       -0.1908
     23 S         141.4331  143.8575  159.9601 S.3     1  UNL1       -0.0761
     24 C         140.2421  144.6951  160.3205 C.3     1  UNL1        0.0824
     25 C         140.2440  145.4948  161.5896 C.3     1  UNL1        0.0843
     26 N         139.6519  144.9172  162.8410 N.3     1  UNL1       -0.2719
     27 C         141.9896  144.9000  163.9745 C.3     1  UNL1        0.0188
     28 C         140.4988  144.7628  164.0693 C.3     1  UNL1        0.0722
     29 C         138.2131  144.4940  162.8639 C.3     1  UNL1        0.0722
     30 C         137.8393  143.1341  163.3745 C.3     1  UNL1        0.0188
@<TRIPOS>BOND
     1    27    28    1
     2    28    26    1
     3    26    29    1
     4    29    30    1
     5    26    25    1
     6    25    24    1
     7    24    23    1
     8    23     1    1
     9     1     2   ar
    10     2     3   ar
    11     3    11    1
    12    11    12   ar
    13    12    13   ar
    14    13    19    1
    15    19    20    1
    16    13    14   ar
    17    14    15    1
    18    14    16   ar
    19    16    17   ar
    20    17    18    1
    21     3     4   ar
    22     4     5   ar
    23     5    21    1
    24    21    22    3
    25     5     6   ar
    26     6     7   ar
    27     7     8   ar
    28     8     9   ar
    29     9     1   ar
    30    17    11   ar
    31     8     4    1
    32     9    10    1
@<TRIPOS>MOLECULE
*****
 30 32 0 0 0
SMALL
GASTEIGER

@<TRIPOS>ATOM
      1 C         143.3265  142.3598  166.0767 C.ar    1  UNL1        0.1690
      2 N         142.3979  141.7175  165.0893 N.ar    1  UNL1       -0.2226
      3 C         141.2070  140.9441  165.5730 C.ar    1  UNL1        0.0878
      4 C         140.9450  140.8132  167.0441 C.ar    1  UNL1        0.0628
      5 C         139.8602  140.1181  167.8123 C.ar    1  UNL1        0.0919
      6 C         140.1186  140.3308  169.2745 C.ar    1  UNL1        0.1109
      7 N         141.3629  141.1574  169.4100 N.ar    1  UNL1       -0.2262
      8 C         141.8737  141.4555  168.0315 C.ar    1  UNL1        0.1441
      9 N         143.0645  142.2288  167.5478 N.ar    1  UNL1       -0.3189
     10 H         143.6740  142.6504  168.1958 H       1  UNL1        0.1693
     11 C         140.2784  140.3018  164.5856 C.ar    1  UNL1        0.0315
     12 C         139.2864  141.1395  163.8344 C.ar    1  UNL1        0.0401
     13 C         138.3577  140.4973  162.8469 C.ar    1  UNL1        0.1493
     14 C         138.4210  139.0174  162.6107 C.ar    1  UNL1        0.0924
     15 CL        137.4923  138.3752  161.6232 Cl      1  UNL1       -0.0791
     16 C         139.4130  138.1797  163.3618 C.ar    1  UNL1        0.0259
     17 C         140.3417  138.8219  164.3493 C.ar    1  UNL1        0.0601
     18 CL        141.3337  137.9843  165.1005 Cl      1  UNL1       -0.0822
     19 O         137.3657  141.3350  162.0958 O.3     1  UNL1       -0.4706
     20 C         137.7686  142.6785  161.5643 C.3     1  UNL1        0.2525
     21 C         138.7178  139.3458  167.2220 C.1     1  UNL1        0.1021
     22 N         137.5753  138.5736  166.6317 N.1     1  UNL1       -0.1908
     23 S         144.5174  143.1332  165.5930 S.3     1  UNL1       -0.0761
     24 C         144.9404  143.0384  164.1570 C.3     1  UNL1        0.0824
     25 C         145.6054  141.7924  163.6518 C.3     1  UNL1        0.0843
     26 N         144.8184  140.7904  162.8600 N.3     1  UNL1       -0.2719
     27 C         144.8273  139.1428  164.8688 C.3     1  UNL1        0.0188
     28 C         144.5776  139.4180  163.4154 C.3     1  UNL1        0.0722
     29 C         144.2724  141.1609  161.5130 C.3     1  UNL1        0.0722
     30 C         142.8177  141.4926  161.3588 C.3     1  UNL1        0.0188
@<TRIPOS>BOND
     1    27    28    1
     2    28    26    1
     3    26    29    1
     4    29    30    1
     5    26    25    1
     6    25    24    1
     7    24    23    1
     8    23     1    1
     9     1     2   ar
    10     2     3   ar
    11     3    11    1
    12    11    12   ar
    13    12    13   ar
    14    13    19    1
    15    19    20    1
    16    13    14   ar
    17    14    15    1
    18    14    16   ar
    19    16    17   ar
    20    17    18    1
    21     3     4   ar
    22     4     5   ar
    23     5    21    1
    24    21    22    3
    25     5     6   ar
    26     6     7   ar
    27     7     8   ar
    28     8     9   ar
    29     9     1   ar
    30    17    11   ar
    31     8     4    1
    32     9    10    1
@<TRIPOS>MOLECULE
*****
 30 32 0 0 0
SMALL
GASTEIGER

@<TRIPOS>ATOM
      1 C         138.8999  143.6372  162.8065 C.ar    1  UNL1        0.1690
      2 N         139.6410  143.0187  163.9545 N.ar    1  UNL1       -0.2226
      3 C         139.6341  141.5298  164.1368 C.ar    1  UNL1        0.0878
      4 C         138.8859  140.6595  163.1711 C.ar    1  UNL1        0.0628
      5 C         138.7004  139.1729  163.0956 C.ar    1  UNL1        0.0919
      6 C         137.8444  138.8727  161.9010 C.ar    1  UNL1        0.1109
      7 N         137.5010  140.1737  161.2380 N.ar    1  UNL1       -0.2262
      8 C         138.1447  141.2780  162.0230 C.ar    1  UNL1        0.1441
      9 N         138.1517  142.7669  161.8407 N.ar    1  UNL1       -0.3189
     10 H         137.6652  143.1729  161.0872 H       1  UNL1        0.1693
     11 C         140.3754  140.9113  165.2849 C.ar    1  UNL1        0.0315
     12 C         139.6712  140.6636  166.5860 C.ar    1  UNL1        0.0401
     13 C         140.4124  140.0451  167.7341 C.ar    1  UNL1        0.1493
     14 C         141.8577  139.6744  167.5811 C.ar    1  UNL1        0.0924
     15 CL        142.5989  139.0560  168.7292 Cl      1  UNL1       -0.0791
     16 C         142.5619  139.9222  166.2800 C.ar    1  UNL1        0.0259
     17 C         141.8208  140.5406  165.1319 C.ar    1  UNL1        0.0601
     18 CL        142.5250  140.7884  163.8309 Cl      1  UNL1       -0.0822
     19 O         139.7081  139.7974  169.0351 O.3     1  UNL1       -0.4706
     20 C         139.2958  140.9539  169.8968 C.3     1  UNL1        0.2525
     21 C         139.2706  138.1638  164.0477 C.1     1  UNL1        0.1021
     22 N         139.8408  137.1546  164.9998 N.1     1  UNL1       -0.1908
     23 S         138.9068  145.1261  162.6242 S.3     1  UNL1       -0.0761
     24 C         140.1535  145.8190  162.1599 C.3     1  UNL1        0.0824
     25 C         141.4573  145.5633  162.8561 C.3     1  UNL1        0.0843
     26 N         142.5049  144.7145  162.1986 N.3     1  UNL1       -0.2719
     27 C         141.8846  142.5628  160.8812 C.3     1  UNL1        0.0188
     28 C         142.2065  144.0278  160.8988 C.3     1  UNL1        0.0722
     29 C         143.8506  144.5524  162.8409 C.3     1  UNL1        0.0722
     30 C         143.9538  144.0400  164.2469 C.3     1  UNL1        0.0188
@<TRIPOS>BOND
     1    27    28    1
     2    28    26    1
     3    26    29    1
     4    29    30    1
     5    26    25    1
     6    25    24    1
     7    24    23    1
     8    23     1    1
     9     1     2   ar
    10     2     3   ar
    11     3    11    1
    12    11    12   ar
    13    12    13   ar
    14    13    19    1
    15    19    20    1
    16    13    14   ar
    17    14    15    1
    18    14    16   ar
    19    16    17   ar
    20    17    18    1
    21     3     4   ar
    22     4     5   ar
    23     5    21    1
    24    21    22    3
    25     5     6   ar
    26     6     7   ar
    27     7     8   ar
    28     8     9   ar
    29     9     1   ar
    30    17    11   ar
    31     8     4    1
    32     9    10    1
