@<TRIPOS>MOLECULE
*****
 41 45 0 0 0
SMALL
GASTEIGER

@<TRIPOS>ATOM
      1 C         138.1425  139.4400  162.1245 C.ar    1  UNL1        0.0536
      2 C         137.8221  140.6611  162.9347 C.ar    1  UNL1        0.0042
      3 C         137.9471  140.6237  164.4289 C.ar    1  UNL1       -0.0041
      4 C         138.3924  139.3653  165.1131 C.ar    1  UNL1       -0.0208
      5 C         138.7128  138.1443  164.3030 C.ar    1  UNL1       -0.0041
      6 C         138.5879  138.1816  162.8087 C.ar    1  UNL1        0.0042
      7 O         136.6821  139.7292  159.9953 O.2     1  UNL1       -0.2699
      8 C         138.0175  139.4773  160.6302 C.2     1  UNL1        0.2491
      9 N         139.2280  139.2628  159.7707 N.am    1  UNL1       -0.2732
     10 C         140.5635  139.0109  160.4056 C.3     1  UNL1        0.1111
     11 C         141.7740  138.7963  159.5461 C.3     1  UNL1        0.0942
     12 N         141.6490  138.8336  158.0518 N.3     1  UNL1       -0.2632
     13 C         140.3136  139.0855  157.4169 C.3     1  UNL1        0.0942
     14 C         139.1031  139.3001  158.2764 C.3     1  UNL1        0.1111
     15 C         142.8595  138.6190  157.1924 C.3     1  UNL1        0.1427
     16 C         143.1049  137.2796  156.5634 C.ar    1  UNL1        0.1994
     17 N         144.3152  136.8870  155.7689 N.ar    1  UNL1       -0.1108
     18 N         144.1413  135.4623  155.3329 N.ar    1  UNL1       -0.0451
     19 N         142.8236  134.9744  155.8579 N.ar    1  UNL1       -0.1423
     20 N         142.1831  136.0975  156.6184 N.ar    1  UNL1       -0.1325
     21 C         142.2476  133.6040  155.6576 C.3     1  UNL1        0.2539
     22 C         143.1209  132.3939  155.8095 C.3     1  UNL1        0.4218
     23 F         143.9942  131.1838  155.9613 F       1  UNL1       -0.1678
     24 F         143.4223  132.4270  154.3404 F       1  UNL1       -0.1678
     25 F         142.8195  132.3608  157.2785 F       1  UNL1       -0.1678
     26 C         138.5174  139.3280  166.6075 C.3     1  UNL1        0.0420
     27 C         139.6692  140.0131  167.2811 C.3     1  UNL1        0.0585
     28 C         139.8907  140.1158  168.7611 C.3     1  UNL1        0.0175
     29 C         141.1602  140.8819  168.9877 C.3     1  UNL1        0.0199
     30 C         141.7233  141.2528  167.6478 C.3     1  UNL1        0.0855
     31 N         140.8018  140.7158  166.5931 N.3     1  UNL1       -0.2971
     32 H         141.3046  140.0595  165.9957 H       1  UNL1        0.1233
     33 C         142.9862  142.0251  167.4052 C.3     1  UNL1        0.1470
     34 O         143.6814  142.7039  168.5479 O.3     1  UNL1       -0.3787
     35 H         144.4756  143.1549  168.2212 H       1  UNL1        0.2108
     36 C         143.5538  142.1185  166.0200 C.ar    1  UNL1        0.0055
     37 C         143.9305  140.8705  165.2780 C.ar    1  UNL1       -0.0019
     38 C         144.4981  140.9638  163.8927 C.ar    1  UNL1       -0.0002
     39 C         144.6890  142.3053  163.2494 C.ar    1  UNL1       -0.0000
     40 C         144.3123  143.5534  163.9913 C.ar    1  UNL1       -0.0002
     41 C         143.7447  143.4600  165.3766 C.ar    1  UNL1       -0.0019
@<TRIPOS>BOND
     1     7     8    2
     2     8     1    1
     3     1     2   ar
     4     2     3   ar
     5     3     4   ar
     6     4    26    1
     7    27    26    1
     8    27    28    1
     9    28    29    1
    10    30    29    1
    11    30    33    1
    12    33    34    1
    13    33    36    1
    14    36    37   ar
    15    37    38   ar
    16    38    39   ar
    17    39    40   ar
    18    40    41   ar
    19    30    31    1
    20     4     5   ar
    21     5     6   ar
    22     8     9   am
    23     9    10    1
    24    10    11    1
    25    11    12    1
    26    12    15    1
    27    15    16    1
    28    16    17   ar
    29    17    18   ar
    30    18    19   ar
    31    19    21    1
    32    21    22    1
    33    22    23    1
    34    22    24    1
    35    22    25    1
    36    19    20   ar
    37    12    13    1
    38    13    14    1
    39     6     1   ar
    40    14     9    1
    41    31    27    1
    42    20    16   ar
    43    41    36   ar
    44    34    35    1
    45    31    32    1
@<TRIPOS>MOLECULE
*****
 41 45 0 0 0
SMALL
GASTEIGER

@<TRIPOS>ATOM
      1 C         140.6566  144.9569  159.6233 C.ar    1  UNL1        0.0536
      2 C         139.9481  145.7498  160.6813 C.ar    1  UNL1        0.0042
      3 C         140.4116  145.6814  162.1062 C.ar    1  UNL1       -0.0041
      4 C         141.5837  144.8203  162.4731 C.ar    1  UNL1       -0.0208
      5 C         142.2922  144.0275  161.4152 C.ar    1  UNL1       -0.0041
      6 C         141.8287  144.0958  159.9903 C.ar    1  UNL1        0.0042
      7 O         140.5620  146.2027  157.3453 O.2     1  UNL1       -0.2699
      8 C         140.1931  145.0252  158.1983 C.2     1  UNL1        0.2491
      9 N         139.3608  143.9161  157.6264 N.am    1  UNL1       -0.2732
     10 C         138.9920  142.7387  158.4794 C.3     1  UNL1        0.1111
     11 C         138.1596  141.6296  157.9074 C.3     1  UNL1        0.0942
     12 N         137.6962  141.6979  156.4825 N.3     1  UNL1       -0.2632
     13 C         138.0650  142.8754  155.6294 C.3     1  UNL1        0.0942
     14 C         138.8973  143.9844  156.2014 C.3     1  UNL1        0.1111
     15 C         136.8639  140.5888  155.9105 C.3     1  UNL1        0.1427
     16 C         135.3673  140.6609  155.9817 C.ar    1  UNL1        0.1994
     17 N         134.4820  141.4946  155.1034 N.ar    1  UNL1       -0.1108
     18 N         133.0608  141.2608  155.5226 N.ar    1  UNL1       -0.0451
     19 N         133.0678  140.2827  156.6598 N.ar    1  UNL1       -0.1423
     20 N         134.4933  139.9120  156.9435 N.ar    1  UNL1       -0.1325
     21 C         131.8611  139.7661  157.3857 C.3     1  UNL1        0.2539
     22 C         131.0620  138.6378  156.8041 C.3     1  UNL1        0.4218
     23 F         130.2628  137.5095  156.2225 F       1  UNL1       -0.1678
     24 F         129.8046  139.4359  156.9835 F       1  UNL1       -0.1678
     25 F         132.3194  137.8397  156.6247 F       1  UNL1       -0.1678
     26 C         142.0472  144.7520  163.8982 C.3     1  UNL1        0.0420
     27 C         142.5280  143.4509  164.4689 C.3     1  UNL1        0.0585
     28 C         143.9577  143.0101  164.5768 C.3     1  UNL1        0.0175
     29 C         143.9769  141.6489  165.2065 C.3     1  UNL1        0.0199
     30 C         142.5589  141.2483  165.4879 C.3     1  UNL1        0.0855
     31 N         141.6635  142.3620  165.0320 N.3     1  UNL1       -0.2971
     32 H         141.1266  142.7199  165.8219 H       1  UNL1        0.1233
     33 C         142.1145  139.9601  166.1149 C.3     1  UNL1        0.1470
     34 O         142.2825  138.6675  165.3727 O.3     1  UNL1       -0.3787
     35 H         141.9467  137.9370  165.9154 H       1  UNL1        0.2108
     36 C         141.5023  139.9646  167.4842 C.ar    1  UNL1        0.0055
     37 C         140.0685  140.3676  167.6633 C.ar    1  UNL1       -0.0019
     38 C         139.4561  140.3721  169.0326 C.ar    1  UNL1       -0.0002
     39 C         140.2775  139.9736  170.2228 C.ar    1  UNL1       -0.0000
     40 C         141.7112  139.5705  170.0437 C.ar    1  UNL1       -0.0002
     41 C         142.3236  139.5661  168.6744 C.ar    1  UNL1       -0.0019
@<TRIPOS>BOND
     1     7     8    2
     2     8     1    1
     3     1     2   ar
     4     2     3   ar
     5     3     4   ar
     6     4    26    1
     7    27    26    1
     8    27    28    1
     9    28    29    1
    10    30    29    1
    11    30    33    1
    12    33    34    1
    13    33    36    1
    14    36    37   ar
    15    37    38   ar
    16    38    39   ar
    17    39    40   ar
    18    40    41   ar
    19    30    31    1
    20     4     5   ar
    21     5     6   ar
    22     8     9   am
    23     9    10    1
    24    10    11    1
    25    11    12    1
    26    12    15    1
    27    15    16    1
    28    16    17   ar
    29    17    18   ar
    30    18    19   ar
    31    19    21    1
    32    21    22    1
    33    22    23    1
    34    22    24    1
    35    22    25    1
    36    19    20   ar
    37    12    13    1
    38    13    14    1
    39     6     1   ar
    40    14     9    1
    41    31    27    1
    42    20    16   ar
    43    41    36   ar
    44    34    35    1
    45    31    32    1
@<TRIPOS>MOLECULE
*****
 41 45 0 0 0
SMALL
GASTEIGER

@<TRIPOS>ATOM
      1 C         140.6463  145.0688  159.6554 C.ar    1  UNL1        0.0536
      2 C         141.8312  144.2524  160.0788 C.ar    1  UNL1        0.0042
      3 C         142.2437  144.2210  161.5206 C.ar    1  UNL1       -0.0041
      4 C         141.4712  145.0059  162.5390 C.ar    1  UNL1       -0.0208
      5 C         140.2862  145.8223  162.1155 C.ar    1  UNL1       -0.0041
      6 C         139.8738  145.8538  160.6737 C.ar    1  UNL1        0.0042
      7 O         140.6362  146.2540  157.3433 O.2     1  UNL1       -0.2699
      8 C         140.2338  145.1003  158.2135 C.2     1  UNL1        0.2491
      9 N         139.4190  143.9781  157.6418 N.am    1  UNL1       -0.2732
     10 C         139.0167  142.8245  158.5120 C.3     1  UNL1        0.1111
     11 C         138.2018  141.7023  157.9402 C.3     1  UNL1        0.0942
     12 N         137.7894  141.7338  156.4984 N.3     1  UNL1       -0.2632
     13 C         138.1917  142.8874  155.6283 C.3     1  UNL1        0.0942
     14 C         139.0065  144.0096  156.1999 C.3     1  UNL1        0.1111
     15 C         136.9746  140.6116  155.9268 C.3     1  UNL1        0.1427
     16 C         135.4777  140.6518  156.0135 C.ar    1  UNL1        0.1994
     17 N         134.5645  141.4499  155.1306 N.ar    1  UNL1       -0.1108
     18 N         133.1535  141.1924  155.5698 N.ar    1  UNL1       -0.0451
     19 N         133.1946  140.2352  156.7239 N.ar    1  UNL1       -0.1423
     20 N         134.6310  139.9011  156.9981 N.ar    1  UNL1       -0.1325
     21 C         132.0077  139.7051  157.4724 C.3     1  UNL1        0.2539
     22 C         131.0355  138.7916  156.7867 C.3     1  UNL1        0.4218
     23 F         130.0632  137.8781  156.1009 F       1  UNL1       -0.1678
     24 F         132.1577  137.8596  156.4371 F       1  UNL1       -0.1678
     25 F         129.9133  139.7236  157.1362 F       1  UNL1       -0.1678
     26 C         141.8836  144.9745  163.9809 C.3     1  UNL1        0.0420
     27 C         142.3970  143.7018  164.5865 C.3     1  UNL1        0.0585
     28 C         143.8103  143.2032  164.5245 C.3     1  UNL1        0.0175
     29 C         143.8739  141.8976  165.2601 C.3     1  UNL1        0.0199
     30 C         142.4998  141.5892  165.7768 C.3     1  UNL1        0.0855
     31 N         141.5870  142.7043  165.3604 N.3     1  UNL1       -0.2971
     32 H         141.1860  143.1497  166.1857 H       1  UNL1        0.1233
     33 C         142.1075  140.3783  166.5704 C.3     1  UNL1        0.1470
     34 O         142.8748  140.0102  167.8056 O.3     1  UNL1       -0.3787
     35 H         142.4939  139.2079  168.1958 H       1  UNL1        0.2108
     36 C         140.9479  139.5356  166.1289 C.ar    1  UNL1        0.0055
     37 C         139.5745  139.8086  166.6668 C.ar    1  UNL1       -0.0019
     38 C         138.4148  138.9659  166.2254 C.ar    1  UNL1       -0.0002
     39 C         138.6285  137.8501  165.2459 C.ar    1  UNL1       -0.0000
     40 C         140.0019  137.5770  164.7080 C.ar    1  UNL1       -0.0002
     41 C         141.1616  138.4198  165.1495 C.ar    1  UNL1       -0.0019
@<TRIPOS>BOND
     1     7     8    2
     2     8     1    1
     3     1     2   ar
     4     2     3   ar
     5     3     4   ar
     6     4    26    1
     7    27    26    1
     8    27    28    1
     9    28    29    1
    10    30    29    1
    11    30    33    1
    12    33    34    1
    13    33    36    1
    14    36    37   ar
    15    37    38   ar
    16    38    39   ar
    17    39    40   ar
    18    40    41   ar
    19    30    31    1
    20     4     5   ar
    21     5     6   ar
    22     8     9   am
    23     9    10    1
    24    10    11    1
    25    11    12    1
    26    12    15    1
    27    15    16    1
    28    16    17   ar
    29    17    18   ar
    30    18    19   ar
    31    19    21    1
    32    21    22    1
    33    22    23    1
    34    22    24    1
    35    22    25    1
    36    19    20   ar
    37    12    13    1
    38    13    14    1
    39     6     1   ar
    40    14     9    1
    41    31    27    1
    42    20    16   ar
    43    41    36   ar
    44    34    35    1
    45    31    32    1
@<TRIPOS>MOLECULE
*****
 41 45 0 0 0
SMALL
GASTEIGER

@<TRIPOS>ATOM
      1 C         144.0277  142.5405  159.2913 C.ar    1  UNL1        0.0536
      2 C         142.7525  143.3162  159.1428 C.ar    1  UNL1        0.0042
      3 C         142.1099  143.9404  160.3459 C.ar    1  UNL1       -0.0041
      4 C         142.7426  143.7890  161.6974 C.ar    1  UNL1       -0.0208
      5 C         144.0178  143.0133  161.8460 C.ar    1  UNL1       -0.0041
      6 C         144.6604  142.3891  160.6429 C.ar    1  UNL1        0.0042
      7 O         145.9685  142.4567  157.5661 O.2     1  UNL1       -0.2699
      8 C         144.6703  141.9162  158.0882 C.2     1  UNL1        0.2491
      9 N         144.0148  140.7516  157.4073 N.am    1  UNL1       -0.2732
     10 C         142.7166  140.2111  157.9294 C.3     1  UNL1        0.1111
     11 C         142.0610  139.0463  157.2484 C.3     1  UNL1        0.0942
     12 N         142.7037  138.4221  156.0454 N.3     1  UNL1       -0.2632
     13 C         144.0019  138.9626  155.5233 C.3     1  UNL1        0.0942
     14 C         144.6574  140.1273  156.2042 C.3     1  UNL1        0.1111
     15 C         142.0481  137.2574  155.3644 C.3     1  UNL1        0.1427
     16 C         142.3208  135.8607  155.8387 C.ar    1  UNL1        0.1994
     17 N         141.4529  134.6617  155.5952 N.ar    1  UNL1       -0.1108
     18 N         142.1050  133.4778  156.2458 N.ar    1  UNL1       -0.0451
     19 N         143.3758  133.9451  156.8913 N.ar    1  UNL1       -0.1423
     20 N         143.5092  135.4178  156.6397 N.ar    1  UNL1       -0.1325
     21 C         144.3433  133.0898  157.6543 C.3     1  UNL1        0.2539
     22 C         144.8465  131.8097  157.0558 C.3     1  UNL1        0.4218
     23 F         145.3497  130.5297  156.4572 F       1  UNL1       -0.1678
     24 F         144.8672  132.4517  155.7002 F       1  UNL1       -0.1678
     25 F         144.8259  131.1678  158.4113 F       1  UNL1       -0.1678
     26 C         142.0999  144.4132  162.9006 C.3     1  UNL1        0.0420
     27 C         140.7679  143.9184  163.3809 C.3     1  UNL1        0.0585
     28 C         139.8270  144.6572  164.2858 C.3     1  UNL1        0.0175
     29 C         138.6204  143.7934  164.5048 C.3     1  UNL1        0.0199
     30 C         138.8156  142.5207  163.7353 C.3     1  UNL1        0.0855
     31 N         140.1428  142.5980  163.0406 N.3     1  UNL1       -0.2971
     32 H         140.0101  142.5276  162.0318 H       1  UNL1        0.1233
     33 C         137.8527  141.3723  163.6715 C.3     1  UNL1        0.1470
     34 O         136.5021  141.5599  163.0465 O.3     1  UNL1       -0.3787
     35 H         136.0084  140.7259  163.0869 H       1  UNL1        0.2108
     36 C         138.2403  140.0365  164.2328 C.ar    1  UNL1        0.0055
     37 C         138.8173  138.9839  163.3333 C.ar    1  UNL1       -0.0019
     38 C         139.2049  137.6479  163.8946 C.ar    1  UNL1       -0.0002
     39 C         139.0156  137.3646  165.3554 C.ar    1  UNL1       -0.0000
     40 C         138.4386  138.4173  166.2549 C.ar    1  UNL1       -0.0002
     41 C         138.0509  139.7532  165.6936 C.ar    1  UNL1       -0.0019
@<TRIPOS>BOND
     1     7     8    2
     2     8     1    1
     3     1     2   ar
     4     2     3   ar
     5     3     4   ar
     6     4    26    1
     7    27    26    1
     8    27    28    1
     9    28    29    1
    10    30    29    1
    11    30    33    1
    12    33    34    1
    13    33    36    1
    14    36    37   ar
    15    37    38   ar
    16    38    39   ar
    17    39    40   ar
    18    40    41   ar
    19    30    31    1
    20     4     5   ar
    21     5     6   ar
    22     8     9   am
    23     9    10    1
    24    10    11    1
    25    11    12    1
    26    12    15    1
    27    15    16    1
    28    16    17   ar
    29    17    18   ar
    30    18    19   ar
    31    19    21    1
    32    21    22    1
    33    22    23    1
    34    22    24    1
    35    22    25    1
    36    19    20   ar
    37    12    13    1
    38    13    14    1
    39     6     1   ar
    40    14     9    1
    41    31    27    1
    42    20    16   ar
    43    41    36   ar
    44    34    35    1
    45    31    32    1
@<TRIPOS>MOLECULE
*****
 41 45 0 0 0
SMALL
GASTEIGER

@<TRIPOS>ATOM
      1 C         144.4805  142.3454  161.4672 C.ar    1  UNL1        0.0536
      2 C         143.5350  143.4115  161.9356 C.ar    1  UNL1        0.0042
      3 C         143.3399  143.6486  163.4038 C.ar    1  UNL1       -0.0041
      4 C         144.0902  142.8197  164.4036 C.ar    1  UNL1       -0.0208
      5 C         145.0358  141.7536  163.9353 C.ar    1  UNL1       -0.0041
      6 C         145.2309  141.5164  162.4671 C.ar    1  UNL1        0.0042
      7 O         145.6177  142.9757  159.2178 O.2     1  UNL1       -0.2699
      8 C         144.6757  142.1082  159.9990 C.2     1  UNL1        0.2491
      9 N         143.9289  141.0036  159.3119 N.am    1  UNL1       -0.2732
     10 C         142.9869  140.1361  160.0931 C.3     1  UNL1        0.1111
     11 C         142.2401  139.0314  159.4059 C.3     1  UNL1        0.0942
     12 N         142.4353  138.7943  157.9377 N.3     1  UNL1       -0.2632
     13 C         143.3773  139.6618  157.1566 C.3     1  UNL1        0.0942
     14 C         144.1241  140.7664  157.8437 C.3     1  UNL1        0.1111
     15 C         141.6885  137.6897  157.2507 C.3     1  UNL1        0.1427
     16 C         142.4126  136.4475  156.8233 C.ar    1  UNL1        0.1994
     17 N         142.5836  135.9680  155.4122 N.ar    1  UNL1       -0.1108
     18 N         143.3695  134.6909  155.4487 N.ar    1  UNL1       -0.0451
     19 N         143.6843  134.3811  156.8822 N.ar    1  UNL1       -0.1423
     20 N         143.0929  135.4668  157.7317 N.ar    1  UNL1       -0.1325
     21 C         144.4551  133.1942  157.3790 C.3     1  UNL1        0.2539
     22 C         144.1473  131.8249  156.8493 C.3     1  UNL1        0.4218
     23 F         143.8395  130.4557  156.3197 F       1  UNL1       -0.1678
     24 F         145.5852  131.6529  156.4584 F       1  UNL1       -0.1678
     25 F         142.7094  131.9970  157.2402 F       1  UNL1       -0.1678
     26 C         143.8951  143.0569  165.8719 C.3     1  UNL1        0.0420
     27 C         142.8897  142.2468  166.6354 C.3     1  UNL1        0.0585
     28 C         142.8679  142.0415  168.1211 C.3     1  UNL1        0.0175
     29 C         141.6943  141.1676  168.4511 C.3     1  UNL1        0.0199
     30 C         140.9908  140.8327  167.1693 C.3     1  UNL1        0.0855
     31 N         141.7295  141.4997  166.0472 N.3     1  UNL1       -0.2971
     32 H         141.1099  142.1488  165.5623 H       1  UNL1        0.1233
     33 C         139.7639  139.9805  167.0336 C.3     1  UNL1        0.1470
     34 O         139.0311  139.5202  168.2589 O.3     1  UNL1       -0.3787
     35 H         138.2673  138.9830  167.9961 H       1  UNL1        0.2108
     36 C         139.2697  139.5886  165.6727 C.ar    1  UNL1        0.0055
     37 C         139.5874  138.2299  165.1221 C.ar    1  UNL1       -0.0019
     38 C         139.0932  137.8379  163.7611 C.ar    1  UNL1       -0.0002
     39 C         138.2814  138.8045  162.9509 C.ar    1  UNL1       -0.0000
     40 C         137.9637  140.1632  163.5016 C.ar    1  UNL1       -0.0002
     41 C         138.4578  140.5552  164.8625 C.ar    1  UNL1       -0.0019
@<TRIPOS>BOND
     1     7     8    2
     2     8     1    1
     3     1     2   ar
     4     2     3   ar
     5     3     4   ar
     6     4    26    1
     7    27    26    1
     8    27    28    1
     9    28    29    1
    10    30    29    1
    11    30    33    1
    12    33    34    1
    13    33    36    1
    14    36    37   ar
    15    37    38   ar
    16    38    39   ar
    17    39    40   ar
    18    40    41   ar
    19    30    31    1
    20     4     5   ar
    21     5     6   ar
    22     8     9   am
    23     9    10    1
    24    10    11    1
    25    11    12    1
    26    12    15    1
    27    15    16    1
    28    16    17   ar
    29    17    18   ar
    30    18    19   ar
    31    19    21    1
    32    21    22    1
    33    22    23    1
    34    22    24    1
    35    22    25    1
    36    19    20   ar
    37    12    13    1
    38    13    14    1
    39     6     1   ar
    40    14     9    1
    41    31    27    1
    42    20    16   ar
    43    41    36   ar
    44    34    35    1
    45    31    32    1
@<TRIPOS>MOLECULE
*****
 41 45 0 0 0
SMALL
GASTEIGER

@<TRIPOS>ATOM
      1 C         140.2760  139.1902  158.5297 C.ar    1  UNL1        0.0536
      2 C         139.5779  138.2252  157.6179 C.ar    1  UNL1        0.0042
      3 C         140.3759  137.3662  156.6823 C.ar    1  UNL1       -0.0041
      4 C         141.8720  137.4722  156.6585 C.ar    1  UNL1       -0.0208
      5 C         142.5701  138.4372  157.5703 C.ar    1  UNL1       -0.0041
      6 C         141.7721  139.2962  158.5059 C.ar    1  UNL1        0.0042
      7 O         138.9114  141.3532  158.9872 O.2     1  UNL1       -0.2699
      8 C         139.4781  140.0493  159.4653 C.2     1  UNL1        0.2491
      9 N         139.2468  139.6044  160.8790 N.am    1  UNL1       -0.2732
     10 C         139.8135  138.3004  161.3571 C.3     1  UNL1        0.1111
     11 C         139.5821  137.8556  162.7709 C.3     1  UNL1        0.0942
     12 N         138.7842  138.7146  163.7064 N.3     1  UNL1       -0.2632
     13 C         138.2176  140.0186  163.2283 C.3     1  UNL1        0.0942
     14 C         138.4488  140.4635  161.8146 C.3     1  UNL1        0.1111
     15 C         138.5529  138.2697  165.1201 C.3     1  UNL1        0.1427
     16 C         139.1117  139.0700  166.2591 C.ar    1  UNL1        0.1994
     17 N         140.3341  139.9381  166.2107 N.ar    1  UNL1       -0.1108
     18 N         140.5239  140.5472  167.5683 N.ar    1  UNL1       -0.0451
     19 N         139.4190  140.0557  168.4557 N.ar    1  UNL1       -0.1423
     20 N         138.5462  139.1427  167.6465 N.ar    1  UNL1       -0.1325
     21 C         139.2215  140.4142  169.8987 C.3     1  UNL1        0.2539
     22 C         140.2185  141.2909  170.5968 C.3     1  UNL1        0.4218
     23 F         141.2156  142.1676  171.2950 F       1  UNL1       -0.1678
     24 F         139.3841  142.4954  170.2759 F       1  UNL1       -0.1678
     25 F         141.0530  140.0864  170.9178 F       1  UNL1       -0.1678
     26 C         142.6699  136.6131  155.7229 C.3     1  UNL1        0.0420
     27 C         142.8671  135.1573  156.0254 C.3     1  UNL1        0.0585
     28 C         141.8768  134.0609  155.7660 C.3     1  UNL1        0.0175
     29 C         142.4868  132.7682  156.2206 C.3     1  UNL1        0.0199
     30 C         143.8542  133.0656  156.7610 C.3     1  UNL1        0.0855
     31 N         144.0892  134.5421  156.6403 N.3     1  UNL1       -0.2971
     32 H         144.9003  134.7162  156.0469 H       1  UNL1        0.1233
     33 C         144.8174  132.0626  157.3233 C.3     1  UNL1        0.1470
     34 O         145.9683  132.5205  158.1694 O.3     1  UNL1       -0.3787
     35 H         146.4893  131.7518  158.4498 H       1  UNL1        0.2108
     36 C         144.6297  130.6017  157.0397 C.ar    1  UNL1        0.0055
     37 C         144.1216  129.6881  158.1154 C.ar    1  UNL1       -0.0019
     38 C         143.9338  128.2272  157.8318 C.ar    1  UNL1       -0.0002
     39 C         144.2543  127.6798  156.4725 C.ar    1  UNL1       -0.0000
     40 C         144.7624  128.5934  155.3968 C.ar    1  UNL1       -0.0002
     41 C         144.9501  130.0544  155.6804 C.ar    1  UNL1       -0.0019
@<TRIPOS>BOND
     1     7     8    2
     2     8     1    1
     3     1     2   ar
     4     2     3   ar
     5     3     4   ar
     6     4    26    1
     7    27    26    1
     8    27    28    1
     9    28    29    1
    10    30    29    1
    11    30    33    1
    12    33    34    1
    13    33    36    1
    14    36    37   ar
    15    37    38   ar
    16    38    39   ar
    17    39    40   ar
    18    40    41   ar
    19    30    31    1
    20     4     5   ar
    21     5     6   ar
    22     8     9   am
    23     9    10    1
    24    10    11    1
    25    11    12    1
    26    12    15    1
    27    15    16    1
    28    16    17   ar
    29    17    18   ar
    30    18    19   ar
    31    19    21    1
    32    21    22    1
    33    22    23    1
    34    22    24    1
    35    22    25    1
    36    19    20   ar
    37    12    13    1
    38    13    14    1
    39     6     1   ar
    40    14     9    1
    41    31    27    1
    42    20    16   ar
    43    41    36   ar
    44    34    35    1
    45    31    32    1
@<TRIPOS>MOLECULE
*****
 41 45 0 0 0
SMALL
GASTEIGER

@<TRIPOS>ATOM
      1 C         141.8636  138.7543  159.7537 C.ar    1  UNL1        0.0536
      2 C         140.4592  139.2783  159.8074 C.ar    1  UNL1        0.0042
      3 C         139.6053  139.0130  161.0116 C.ar    1  UNL1       -0.0041
      4 C         140.1557  138.2235  162.1622 C.ar    1  UNL1       -0.0208
      5 C         141.5601  137.6994  162.1085 C.ar    1  UNL1       -0.0041
      6 C         142.4141  137.9648  160.9042 C.ar    1  UNL1        0.0042
      7 O         143.7651  140.0924  158.5944 O.2     1  UNL1       -0.2699
      8 C         142.7177  139.0196  158.5494 C.2     1  UNL1        0.2491
      9 N         142.5243  138.2122  157.3001 N.am    1  UNL1       -0.2732
     10 C         141.4768  137.1394  157.2551 C.3     1  UNL1        0.1111
     11 C         141.2834  136.3320  156.0058 C.3     1  UNL1        0.0942
     12 N         142.1374  136.5974  154.8016 N.3     1  UNL1       -0.2632
     13 C         143.1849  137.6702  154.8466 C.3     1  UNL1        0.0942
     14 C         143.3783  138.4776  156.0958 C.3     1  UNL1        0.1111
     15 C         141.9440  135.7900  153.5523 C.3     1  UNL1        0.1427
     16 C         142.1188  134.3006  153.5873 C.ar    1  UNL1        0.1994
     17 N         141.3791  133.3060  152.7425 N.ar    1  UNL1       -0.1108
     18 N         141.8671  131.9350  153.1063 N.ar    1  UNL1       -0.0451
     19 N         142.9084  132.0824  154.1759 N.ar    1  UNL1       -0.1423
     20 N         143.0639  133.5444  154.4732 N.ar    1  UNL1       -0.1325
     21 C         143.6618  130.9640  154.8329 C.3     1  UNL1        0.2539
     22 C         143.9422  131.0122  156.3057 C.3     1  UNL1        0.4218
     23 F         144.2226  131.0604  157.7785 F       1  UNL1       -0.1678
     24 F         145.3981  131.2345  156.0212 F       1  UNL1       -0.1678
     25 F         142.4863  130.7899  156.5901 F       1  UNL1       -0.1678
     26 C         139.3017  137.9582  163.3665 C.3     1  UNL1        0.0420
     27 C         139.3284  138.9063  164.5285 C.3     1  UNL1        0.0585
     28 C         138.8449  138.6122  165.9177 C.3     1  UNL1        0.0175
     29 C         139.0610  139.8391  166.7531 C.3     1  UNL1        0.0199
     30 C         139.6780  140.8915  165.8803 C.3     1  UNL1        0.0855
     31 N         139.8432  140.3150  164.5054 N.3     1  UNL1       -0.2971
     32 H         140.8293  140.3189  164.2447 H       1  UNL1        0.1233
     33 C         140.0622  142.2772  166.3074 C.3     1  UNL1        0.1470
     34 O         139.6048  143.4619  165.5092 O.3     1  UNL1       -0.3787
     35 H         139.9377  144.2758  165.9188 H       1  UNL1        0.2108
     36 C         140.9038  142.4781  167.5326 C.ar    1  UNL1        0.0055
     37 C         142.3195  141.9829  167.5595 C.ar    1  UNL1       -0.0019
     38 C         143.1612  142.1838  168.7847 C.ar    1  UNL1       -0.0002
     39 C         142.5872  142.8798  169.9830 C.ar    1  UNL1       -0.0000
     40 C         141.1715  143.3749  169.9562 C.ar    1  UNL1       -0.0002
     41 C         140.3298  143.1740  168.7310 C.ar    1  UNL1       -0.0019
@<TRIPOS>BOND
     1     7     8    2
     2     8     1    1
     3     1     2   ar
     4     2     3   ar
     5     3     4   ar
     6     4    26    1
     7    27    26    1
     8    27    28    1
     9    28    29    1
    10    30    29    1
    11    30    33    1
    12    33    34    1
    13    33    36    1
    14    36    37   ar
    15    37    38   ar
    16    38    39   ar
    17    39    40   ar
    18    40    41   ar
    19    30    31    1
    20     4     5   ar
    21     5     6   ar
    22     8     9   am
    23     9    10    1
    24    10    11    1
    25    11    12    1
    26    12    15    1
    27    15    16    1
    28    16    17   ar
    29    17    18   ar
    30    18    19   ar
    31    19    21    1
    32    21    22    1
    33    22    23    1
    34    22    24    1
    35    22    25    1
    36    19    20   ar
    37    12    13    1
    38    13    14    1
    39     6     1   ar
    40    14     9    1
    41    31    27    1
    42    20    16   ar
    43    41    36   ar
    44    34    35    1
    45    31    32    1
@<TRIPOS>MOLECULE
*****
 41 45 0 0 0
SMALL
GASTEIGER

@<TRIPOS>ATOM
      1 C         143.7163  141.5919  158.1821 C.ar    1  UNL1        0.0536
      2 C         144.1097  141.3858  159.6148 C.ar    1  UNL1        0.0042
      3 C         143.5486  142.2776  160.6823 C.ar    1  UNL1       -0.0041
      4 C         142.5939  143.3754  160.3172 C.ar    1  UNL1       -0.0208
      5 C         142.2004  143.5815  158.8845 C.ar    1  UNL1       -0.0041
      6 C         142.7616  142.6898  157.8170 C.ar    1  UNL1        0.0042
      7 O         145.5824  141.0439  156.4594 O.2     1  UNL1       -0.2699
      8 C         144.2775  140.7001  157.1144 C.2     1  UNL1        0.2491
      9 N         143.5338  139.4646  156.7018 N.am    1  UNL1       -0.2732
     10 C         142.2289  139.1207  157.3568 C.3     1  UNL1        0.1111
     11 C         141.4852  137.8851  156.9441 C.3     1  UNL1        0.0942
     12 N         142.0464  136.9934  155.8765 N.3     1  UNL1       -0.2632
     13 C         143.3513  137.3372  155.2215 C.3     1  UNL1        0.0942
     14 C         144.0950  138.5728  155.6341 C.3     1  UNL1        0.1111
     15 C         141.3027  135.7578  155.4639 C.3     1  UNL1        0.1427
     16 C         141.8448  134.4039  155.8145 C.ar    1  UNL1        0.1994
     17 N         141.2774  133.0863  155.3761 N.ar    1  UNL1       -0.1108
     18 N         142.1315  131.9979  155.9557 N.ar    1  UNL1       -0.0451
     19 N         143.2267  132.6428  156.7524 N.ar    1  UNL1       -0.1423
     20 N         143.0495  134.1297  156.6651 N.ar    1  UNL1       -0.1325
     21 C         144.3090  131.9264  157.5043 C.3     1  UNL1        0.2539
     22 C         144.6435  130.5043  157.1640 C.3     1  UNL1        0.4218
     23 F         144.9780  129.0822  156.8237 F       1  UNL1       -0.1678
     24 F         145.3296  130.9652  155.9122 F       1  UNL1       -0.1678
     25 F         143.9574  130.0434  158.4157 F       1  UNL1       -0.1678
     26 C         142.0327  144.2672  161.3849 C.3     1  UNL1        0.0420
     27 C         140.6890  143.9693  161.9812 C.3     1  UNL1        0.0585
     28 C         139.5317  144.9198  162.0658 C.3     1  UNL1        0.0175
     29 C         138.3940  144.2065  162.7345 C.3     1  UNL1        0.0199
     30 C         138.8483  142.8152  163.0631 C.3     1  UNL1        0.0855
     31 N         140.2666  142.6686  162.5975 N.3     1  UNL1       -0.2971
     32 H         140.3284  141.9216  161.9058 H       1  UNL1        0.1233
     33 C         138.0282  141.7564  163.7386 C.3     1  UNL1        0.1470
     34 O         136.7081  141.3452  163.1569 O.3     1  UNL1       -0.3787
     35 H         136.3109  140.6559  163.7119 H       1  UNL1        0.2108
     36 C         138.5280  141.1088  164.9958 C.ar    1  UNL1        0.0055
     37 C         138.0471  139.7400  165.3768 C.ar    1  UNL1       -0.0019
     38 C         138.5469  139.0924  166.6340 C.ar    1  UNL1       -0.0002
     39 C         139.5277  139.8135  167.5103 C.ar    1  UNL1       -0.0000
     40 C         140.0087  141.1823  167.1294 C.ar    1  UNL1       -0.0002
     41 C         139.5088  141.8300  165.8722 C.ar    1  UNL1       -0.0019
@<TRIPOS>BOND
     1     7     8    2
     2     8     1    1
     3     1     2   ar
     4     2     3   ar
     5     3     4   ar
     6     4    26    1
     7    27    26    1
     8    27    28    1
     9    28    29    1
    10    30    29    1
    11    30    33    1
    12    33    34    1
    13    33    36    1
    14    36    37   ar
    15    37    38   ar
    16    38    39   ar
    17    39    40   ar
    18    40    41   ar
    19    30    31    1
    20     4     5   ar
    21     5     6   ar
    22     8     9   am
    23     9    10    1
    24    10    11    1
    25    11    12    1
    26    12    15    1
    27    15    16    1
    28    16    17   ar
    29    17    18   ar
    30    18    19   ar
    31    19    21    1
    32    21    22    1
    33    22    23    1
    34    22    24    1
    35    22    25    1
    36    19    20   ar
    37    12    13    1
    38    13    14    1
    39     6     1   ar
    40    14     9    1
    41    31    27    1
    42    20    16   ar
    43    41    36   ar
    44    34    35    1
    45    31    32    1
@<TRIPOS>MOLECULE
*****
 41 45 0 0 0
SMALL
GASTEIGER

@<TRIPOS>ATOM
      1 C         138.2482  140.4851  159.5297 C.ar    1  UNL1        0.0536
      2 C         138.4813  141.9059  159.9503 C.ar    1  UNL1        0.0042
      3 C         138.3334  142.2953  161.3913 C.ar    1  UNL1       -0.0041
      4 C         137.9525  141.2640  162.4117 C.ar    1  UNL1       -0.0208
      5 C         137.7193  139.8432  161.9911 C.ar    1  UNL1       -0.0041
      6 C         137.8672  139.4538  160.5501 C.ar    1  UNL1        0.0042
      7 O         137.3728  140.5358  157.0841 O.2     1  UNL1       -0.2699
      8 C         138.3960  140.0956  158.0887 C.2     1  UNL1        0.2491
      9 N         139.5670  139.2660  157.6524 N.am    1  UNL1       -0.2732
     10 C         140.5902  138.8259  158.6570 C.3     1  UNL1        0.1111
     11 C         141.7613  137.9962  158.2206 C.3     1  UNL1        0.0942
     12 N         141.9091  137.6067  156.7796 N.3     1  UNL1       -0.2632
     13 C         140.8859  138.0469  155.7750 C.3     1  UNL1        0.0942
     14 C         139.7148  138.8765  156.2113 C.3     1  UNL1        0.1111
     15 C         143.0801  136.7771  156.3433 C.3     1  UNL1        0.1427
     16 C         142.9961  135.2801  156.3860 C.ar    1  UNL1        0.1994
     17 N         143.2382  134.4174  157.5890 N.ar    1  UNL1       -0.1108
     18 N         143.0470  132.9870  157.1796 N.ar    1  UNL1       -0.0451
     19 N         142.6868  132.9657  155.7236 N.ar    1  UNL1       -0.1423
     20 N         142.6553  134.3829  155.2332 N.ar    1  UNL1       -0.1325
     21 C         142.4071  131.7421  154.9024 C.3     1  UNL1        0.2539
     22 C         141.0422  131.1202  154.9241 C.3     1  UNL1        0.4218
     23 F         139.6774  130.4983  154.9457 F       1  UNL1       -0.1678
     24 F         141.5594  130.0156  155.7973 F       1  UNL1       -0.1678
     25 F         140.5251  132.2248  154.0509 F       1  UNL1       -0.1678
     26 C         137.8046  141.6535  163.8527 C.3     1  UNL1        0.0420
     27 C         138.7623  141.1192  164.8761 C.3     1  UNL1        0.0585
     28 C         138.4596  140.0690  165.9034 C.3     1  UNL1        0.0175
     29 C         139.7010  139.8421  166.7141 C.3     1  UNL1        0.0199
     30 C         140.7711  140.7521  166.1878 C.3     1  UNL1        0.0855
     31 N         140.1909  141.5414  165.0518 N.3     1  UNL1       -0.2971
     32 H         140.7149  141.3540  164.1970 H       1  UNL1        0.1233
     33 C         142.1749  140.8547  166.7063 C.3     1  UNL1        0.1470
     34 O         142.4463  140.6939  168.1728 O.3     1  UNL1       -0.3787
     35 H         143.3975  140.7881  168.3378 H       1  UNL1        0.2108
     36 C         143.3072  141.1181  165.7586 C.ar    1  UNL1        0.0055
     37 C         143.9366  139.9822  165.0079 C.ar    1  UNL1       -0.0019
     38 C         145.0690  140.2455  164.0601 C.ar    1  UNL1       -0.0002
     39 C         145.5719  141.6449  163.8629 C.ar    1  UNL1       -0.0000
     40 C         144.9425  142.7808  164.6135 C.ar    1  UNL1       -0.0002
     41 C         143.8101  142.5175  165.5614 C.ar    1  UNL1       -0.0019
@<TRIPOS>BOND
     1     7     8    2
     2     8     1    1
     3     1     2   ar
     4     2     3   ar
     5     3     4   ar
     6     4    26    1
     7    27    26    1
     8    27    28    1
     9    28    29    1
    10    30    29    1
    11    30    33    1
    12    33    34    1
    13    33    36    1
    14    36    37   ar
    15    37    38   ar
    16    38    39   ar
    17    39    40   ar
    18    40    41   ar
    19    30    31    1
    20     4     5   ar
    21     5     6   ar
    22     8     9   am
    23     9    10    1
    24    10    11    1
    25    11    12    1
    26    12    15    1
    27    15    16    1
    28    16    17   ar
    29    17    18   ar
    30    18    19   ar
    31    19    21    1
    32    21    22    1
    33    22    23    1
    34    22    24    1
    35    22    25    1
    36    19    20   ar
    37    12    13    1
    38    13    14    1
    39     6     1   ar
    40    14     9    1
    41    31    27    1
    42    20    16   ar
    43    41    36   ar
    44    34    35    1
    45    31    32    1
