@<TRIPOS>MOLECULE
*****
 35 38 0 0 0
SMALL
GASTEIGER

@<TRIPOS>ATOM
      1 C         141.4421  143.1244  161.5995 C.ar    1  UNL1        0.0537
      2 C         141.7340  142.0763  160.5669 C.ar    1  UNL1        0.0060
      3 C         142.1652  140.7040  160.9922 C.ar    1  UNL1        0.0173
      4 C         142.3044  140.3798  162.4501 C.ar    1  UNL1        0.0594
      5 C         142.0125  141.4279  163.4827 C.ar    1  UNL1        0.0130
      6 C         141.5814  142.8002  163.0574 C.ar    1  UNL1        0.0057
      7 C         142.2355  140.8203  164.8359 C.ar    1  UNL1       -0.0091
      8 C         142.6653  139.3967  164.6396 C.ar    1  UNL1        0.0331
      9 N         142.7078  139.1244  163.1651 N.ar    1  UNL1       -0.3289
     10 C         143.0872  137.8250  162.5190 C.3     1  UNL1        0.1301
     11 C         142.9623  138.5321  165.8288 C.3     1  UNL1        0.0435
     12 C         142.8296  139.0912  167.2144 C.3     1  UNL1        0.0066
     13 C         142.3999  140.5149  167.4107 C.3     1  UNL1        0.0049
     14 C         142.1028  141.3794  166.2214 C.3     1  UNL1        0.0275
     15 C         142.2671  141.0740  168.7962 C.3     1  UNL1        0.0053
     16 C         141.4387  140.3547  169.8191 C.3     1  UNL1        0.0322
     17 C         141.3060  140.9138  171.2047 C.3     1  UNL1        0.1422
     18 O         142.0018  142.1923  171.5674 O.3     1  UNL1       -0.3538
     19 C         142.8302  142.9116  170.5445 C.3     1  UNL1        0.1422
     20 C         142.9629  142.3525  169.1589 C.3     1  UNL1        0.0322
     21 N         139.7020  145.0530  161.6508 N.am    1  UNL1       -0.2735
     22 C         139.2708  146.4253  161.2254 C.3     1  UNL1        0.1152
     23 C         141.0109  144.4967  161.1742 C.2     1  UNL1        0.2491
     24 O         141.8888  145.3128  160.2723 O.2     1  UNL1       -0.2699
     25 C         138.8241  144.2369  162.5527 C.3     1  UNL1        0.1054
     26 C         138.7066  144.5905  164.0056 C.3     1  UNL1        0.1568
     27 O         139.8058  145.3539  164.6830 O.3     1  UNL1       -0.3802
     28 H         140.6073  144.8084  164.7131 H       1  UNL1        0.2105
     29 C         138.0638  143.0672  162.0016 C.3     1  UNL1        0.0319
     30 C         137.3532  142.1291  162.9318 C.3     1  UNL1        0.0868
     31 C         138.7060  139.4042  165.4803 C.3     1  UNL1        0.1107
     32 N         137.9918  140.6066  164.9377 N.am    1  UNL1       -0.3027
     33 C         138.0674  140.9268  163.4743 C.2     1  UNL1        0.2226
     34 O         138.8571  140.0446  162.5534 O.2     1  UNL1       -0.2751
     35 H         137.4734  141.1856  165.5422 H       1  UNL1        0.1495
@<TRIPOS>BOND
     1    31    32    1
     2    32    33   am
     3    33    34    2
     4    33    30    1
     5    30    29    1
     6    25    29    1
     7    25    26    1
     8    26    27    1
     9    25    21    1
    10    21    22    1
    11    21    23   am
    12    23    24    2
    13    23     1    1
    14     1     2   ar
    15     2     3   ar
    16     3     4   ar
    17     4     5   ar
    18     5     6   ar
    19     5     7   ar
    20     7     8   ar
    21     8     9   ar
    22     9    10    1
    23     8    11    1
    24    11    12    1
    25    12    13    1
    26    13    15    1
    27    15    16    1
    28    16    17    1
    29    17    18    1
    30    18    19    1
    31    19    20    1
    32    13    14    1
    33     6     1   ar
    34    14     7    1
    35     9     4   ar
    36    20    15    1
    37    32    35    1
    38    27    28    1
@<TRIPOS>MOLECULE
*****
 35 38 0 0 0
SMALL
GASTEIGER

@<TRIPOS>ATOM
      1 C         141.6600  141.5803  160.5690 C.ar    1  UNL1        0.0537
      2 C         140.9095  140.4518  159.9264 C.ar    1  UNL1        0.0060
      3 C         140.1363  139.4861  160.7746 C.ar    1  UNL1        0.0173
      4 C         140.1135  139.6489  162.2656 C.ar    1  UNL1        0.0594
      5 C         140.8640  140.7775  162.9082 C.ar    1  UNL1        0.0130
      6 C         141.6373  141.7432  162.0600 C.ar    1  UNL1        0.0057
      7 C         140.6589  140.6855  164.3913 C.ar    1  UNL1       -0.0091
      8 C         139.7816  139.5000  164.6652 C.ar    1  UNL1        0.0331
      9 N         139.4446  138.8594  163.3514 N.ar    1  UNL1       -0.3289
     10 C         138.5888  137.6428  163.1575 C.3     1  UNL1        0.1301
     11 C         139.4030  139.1570  166.0755 C.3     1  UNL1        0.0435
     12 C         139.9018  139.9995  167.2119 C.3     1  UNL1        0.0066
     13 C         140.7790  141.1849  166.9381 C.3     1  UNL1        0.0049
     14 C         141.1576  141.5279  165.5277 C.3     1  UNL1        0.0275
     15 C         141.2778  142.0274  168.0745 C.3     1  UNL1        0.0053
     16 C         140.3703  143.0351  168.7157 C.3     1  UNL1        0.0322
     17 C         140.8690  143.8776  169.8521 C.3     1  UNL1        0.1422
     18 O         142.2753  143.7123  170.3474 O.3     1  UNL1       -0.3538
     19 C         143.1827  142.7046  169.7063 C.3     1  UNL1        0.1422
     20 C         142.6840  141.8622  168.5698 C.3     1  UNL1        0.0322
     21 N         141.7982  143.8309  159.2783 N.am    1  UNL1       -0.2735
     22 C         142.5714  144.7965  158.4301 C.3     1  UNL1        0.1152
     23 C         142.4333  142.5460  159.7208 C.2     1  UNL1        0.2491
     24 O         143.8416  142.2269  159.3150 O.2     1  UNL1       -0.2699
     25 C         140.3898  144.1501  159.6841 C.3     1  UNL1        0.1054
     26 C         139.2660  143.2496  159.2643 C.3     1  UNL1        0.1568
     27 O         138.1816  142.8989  160.2395 O.3     1  UNL1       -0.3802
     28 H         138.5545  142.3677  160.9604 H       1  UNL1        0.2105
     29 C         140.1053  145.3696  160.5097 C.3     1  UNL1        0.0319
     30 C         140.4232  145.3739  161.9757 C.3     1  UNL1        0.0868
     31 C         138.5771  144.8364  165.4474 C.3     1  UNL1        0.1107
     32 N         139.6593  145.1065  164.4444 N.am    1  UNL1       -0.3027
     33 C         139.3410  145.1038  162.9786 C.2     1  UNL1        0.2226
     34 O         137.9405  144.8311  162.5157 O.2     1  UNL1       -0.2751
     35 H         140.5785  145.2855  164.7482 H       1  UNL1        0.1495
@<TRIPOS>BOND
     1    31    32    1
     2    32    33   am
     3    33    34    2
     4    33    30    1
     5    30    29    1
     6    25    29    1
     7    25    26    1
     8    26    27    1
     9    25    21    1
    10    21    22    1
    11    21    23   am
    12    23    24    2
    13    23     1    1
    14     1     2   ar
    15     2     3   ar
    16     3     4   ar
    17     4     5   ar
    18     5     6   ar
    19     5     7   ar
    20     7     8   ar
    21     8     9   ar
    22     9    10    1
    23     8    11    1
    24    11    12    1
    25    12    13    1
    26    13    15    1
    27    15    16    1
    28    16    17    1
    29    17    18    1
    30    18    19    1
    31    19    20    1
    32    13    14    1
    33     6     1   ar
    34    14     7    1
    35     9     4   ar
    36    20    15    1
    37    32    35    1
    38    27    28    1
@<TRIPOS>MOLECULE
*****
 35 38 0 0 0
SMALL
GASTEIGER

@<TRIPOS>ATOM
      1 C         142.1304  140.9266  160.6588 C.ar    1  UNL1        0.0537
      2 C         141.7447  141.9895  159.6733 C.ar    1  UNL1        0.0060
      3 C         141.0302  143.2225  160.1412 C.ar    1  UNL1        0.0173
      4 C         140.7013  143.3927  161.5948 C.ar    1  UNL1        0.0594
      5 C         141.0869  142.3298  162.5803 C.ar    1  UNL1        0.0130
      6 C         141.8015  141.0967  162.1124 C.ar    1  UNL1        0.0057
      7 C         140.6332  142.7718  163.9401 C.ar    1  UNL1       -0.0091
      8 C         139.9671  144.1079  163.7948 C.ar    1  UNL1        0.0331
      9 N         140.0092  144.4916  162.3453 N.ar    1  UNL1       -0.3289
     10 C         139.4563  145.7528  161.7507 C.3     1  UNL1        0.1301
     11 C         139.4083  144.8024  165.0011 C.3     1  UNL1        0.0435
     12 C         139.5155  144.1609  166.3527 C.3     1  UNL1        0.0066
     13 C         140.1816  142.8248  166.4980 C.3     1  UNL1        0.0049
     14 C         140.7404  142.1302  165.2917 C.3     1  UNL1        0.0275
     15 C         140.2889  142.1833  167.8497 C.3     1  UNL1        0.0053
     16 C         140.4537  143.0351  169.0732 C.3     1  UNL1        0.0322
     17 C         140.5609  142.3936  170.4249 C.3     1  UNL1        0.1422
     18 O         140.5035  140.9001  170.5529 O.3     1  UNL1       -0.3538
     19 C         140.3387  140.0482  169.3293 C.3     1  UNL1        0.1422
     20 C         140.2314  140.6898  167.9777 C.3     1  UNL1        0.0322
     21 N         142.1297  138.3752  160.1683 N.am    1  UNL1       -0.2735
     22 C         142.8442  137.1422  159.7003 C.3     1  UNL1        0.1152
     23 C         142.8449  139.6935  160.1909 C.2     1  UNL1        0.2491
     24 O         144.2747  139.7787  159.7455 O.2     1  UNL1       -0.2699
     25 C         140.6998  138.2900  160.6137 C.3     1  UNL1        0.1054
     26 C         139.5933  138.5769  159.6424 C.3     1  UNL1        0.1568
     27 O         138.9334  139.9239  159.6337 O.3     1  UNL1       -0.3802
     28 H         138.4555  140.0551  160.4676 H       1  UNL1        0.2105
     29 C         140.3764  137.9178  162.0303 C.3     1  UNL1        0.0319
     30 C         138.9581  137.9735  162.5153 C.3     1  UNL1        0.0868
     31 C         137.3221  141.5488  163.0546 C.3     1  UNL1        0.1107
     32 N         137.8354  140.3124  162.3779 N.am    1  UNL1       -0.3027
     33 C         138.4448  139.2099  163.1921 C.2     1  UNL1        0.2226
     34 O         138.5411  139.3437  164.6830 O.2     1  UNL1       -0.2751
     35 H         137.7722  140.2246  161.3994 H       1  UNL1        0.1495
@<TRIPOS>BOND
     1    31    32    1
     2    32    33   am
     3    33    34    2
     4    33    30    1
     5    30    29    1
     6    25    29    1
     7    25    26    1
     8    26    27    1
     9    25    21    1
    10    21    22    1
    11    21    23   am
    12    23    24    2
    13    23     1    1
    14     1     2   ar
    15     2     3   ar
    16     3     4   ar
    17     4     5   ar
    18     5     6   ar
    19     5     7   ar
    20     7     8   ar
    21     8     9   ar
    22     9    10    1
    23     8    11    1
    24    11    12    1
    25    12    13    1
    26    13    15    1
    27    15    16    1
    28    16    17    1
    29    17    18    1
    30    18    19    1
    31    19    20    1
    32    13    14    1
    33     6     1   ar
    34    14     7    1
    35     9     4   ar
    36    20    15    1
    37    32    35    1
    38    27    28    1
@<TRIPOS>MOLECULE
*****
 35 38 0 0 0
SMALL
GASTEIGER

@<TRIPOS>ATOM
      1 C         140.5325  142.8239  160.7254 C.ar    1  UNL1        0.0537
      2 C         140.2290  141.5629  159.9719 C.ar    1  UNL1        0.0060
      3 C         140.1026  140.2617  160.7073 C.ar    1  UNL1        0.0173
      4 C         140.2798  140.2214  162.1963 C.ar    1  UNL1        0.0594
      5 C         140.5833  141.4824  162.9498 C.ar    1  UNL1        0.0130
      6 C         140.7097  142.7836  162.2144 C.ar    1  UNL1        0.0057
      7 C         140.7049  141.1355  164.4041 C.ar    1  UNL1       -0.0091
      8 C         140.4766  139.6601  164.5493 C.ar    1  UNL1        0.0331
      9 N         140.2138  139.0952  163.1848 N.ar    1  UNL1       -0.3289
     10 C         139.9342  137.6566  162.8650 C.3     1  UNL1        0.1301
     11 C         140.5375  139.0216  165.9052 C.3     1  UNL1        0.0435
     12 C         140.8267  139.8586  167.1160 C.3     1  UNL1        0.0066
     13 C         141.0550  141.3339  166.9707 C.3     1  UNL1        0.0049
     14 C         140.9941  141.9724  165.6148 C.3     1  UNL1        0.0275
     15 C         141.3442  142.1709  168.1815 C.3     1  UNL1        0.0053
     16 C         142.6643  142.0447  168.8826 C.3     1  UNL1        0.0322
     17 C         142.9535  142.8816  170.0934 C.3     1  UNL1        0.1422
     18 O         141.9225  143.8448  170.6030 O.3     1  UNL1       -0.3538
     19 C         140.6025  143.9710  169.9019 C.3     1  UNL1        0.1422
     20 C         140.3133  143.1340  168.6912 C.3     1  UNL1        0.0322
     21 N         141.8503  144.3793  159.1149 N.am    1  UNL1       -0.2735
     22 C         141.9767  145.6806  158.3795 C.3     1  UNL1        0.1152
     23 C         140.6589  144.1251  159.9900 C.2     1  UNL1        0.2491
     24 O         139.5939  145.1721  160.1298 O.2     1  UNL1       -0.2699
     25 C         142.9154  143.3323  158.9751 C.3     1  UNL1        0.1054
     26 C         143.1605  142.6848  157.6445 C.3     1  UNL1        0.1568
     27 O         144.3416  143.0961  156.8164 O.3     1  UNL1       -0.3802
     28 H         144.2317  144.0166  156.5311 H       1  UNL1        0.2105
     29 C         143.7353  142.9329  160.1659 C.3     1  UNL1        0.0319
     30 C         143.9549  141.4810  160.4725 C.3     1  UNL1        0.0868
     31 C         144.3685  139.5206  163.8982 C.3     1  UNL1        0.1107
     32 N         143.8418  139.9323  162.5554 N.am    1  UNL1       -0.3027
     33 C         144.4816  141.0693  161.8153 C.2     1  UNL1        0.2226
     34 O         145.6481  141.7946  162.4179 O.2     1  UNL1       -0.2751
     35 H         143.0761  139.4563  162.1598 H       1  UNL1        0.1495
@<TRIPOS>BOND
     1    31    32    1
     2    32    33   am
     3    33    34    2
     4    33    30    1
     5    30    29    1
     6    25    29    1
     7    25    26    1
     8    26    27    1
     9    25    21    1
    10    21    22    1
    11    21    23   am
    12    23    24    2
    13    23     1    1
    14     1     2   ar
    15     2     3   ar
    16     3     4   ar
    17     4     5   ar
    18     5     6   ar
    19     5     7   ar
    20     7     8   ar
    21     8     9   ar
    22     9    10    1
    23     8    11    1
    24    11    12    1
    25    12    13    1
    26    13    15    1
    27    15    16    1
    28    16    17    1
    29    17    18    1
    30    18    19    1
    31    19    20    1
    32    13    14    1
    33     6     1   ar
    34    14     7    1
    35     9     4   ar
    36    20    15    1
    37    32    35    1
    38    27    28    1
@<TRIPOS>MOLECULE
*****
 35 38 0 0 0
SMALL
GASTEIGER

@<TRIPOS>ATOM
      1 C         140.1797  141.8280  160.7604 C.ar    1  UNL1        0.0537
      2 C         141.4656  141.9299  159.9950 C.ar    1  UNL1        0.0060
      3 C         142.7683  142.0476  160.7293 C.ar    1  UNL1        0.0173
      4 C         142.7850  142.0634  162.2291 C.ar    1  UNL1        0.0594
      5 C         141.4991  141.9615  162.9945 C.ar    1  UNL1        0.0130
      6 C         140.1964  141.8438  162.2602 C.ar    1  UNL1        0.0057
      7 C         141.8261  142.0033  164.4579 C.ar    1  UNL1       -0.0091
      8 C         143.3142  142.1311  164.5968 C.ar    1  UNL1        0.0331
      9 N         143.9068  142.1682  163.2193 N.ar    1  UNL1       -0.3289
     10 C         145.3652  142.2889  162.8898 C.3     1  UNL1        0.1301
     11 C         143.9374  142.1971  165.9595 C.3     1  UNL1        0.0435
     12 C         143.0724  142.1354  167.1835 C.3     1  UNL1        0.0066
     13 C         141.5843  142.0076  167.0446 C.3     1  UNL1        0.0049
     14 C         140.9612  141.9416  165.6818 C.3     1  UNL1        0.0275
     15 C         140.7194  141.9459  168.2686 C.3     1  UNL1        0.0053
     16 C         140.6559  143.1184  169.2020 C.3     1  UNL1        0.0322
     17 C         139.7909  143.0566  170.4260 C.3     1  UNL1        0.1422
     18 O         138.9895  141.8223  170.7165 O.3     1  UNL1       -0.3538
     19 C         139.0530  140.6499  169.7831 C.3     1  UNL1        0.1422
     20 C         139.9179  140.7116  168.5592 C.3     1  UNL1        0.0322
     21 N         138.2463  140.3637  159.8288 N.am    1  UNL1       -0.2735
     22 C         136.9437  140.2460  159.0944 C.3     1  UNL1        0.1152
     23 C         138.8770  141.7103  160.0261 C.2     1  UNL1        0.2491
     24 O         138.2051  142.9391  159.4891 O.2     1  UNL1       -0.2699
     25 C         138.9183  139.1348  160.3658 C.3     1  UNL1        0.1054
     26 C         140.2151  138.6693  159.7728 C.3     1  UNL1        0.1568
     27 O         141.3928  138.4007  160.6620 O.3     1  UNL1       -0.3802
     28 H         141.6883  139.2312  161.0669 H       1  UNL1        0.2105
     29 C         138.2934  138.3714  161.4957 C.3     1  UNL1        0.0319
     30 C         138.2603  138.9640  162.8734 C.3     1  UNL1        0.0868
     31 C         141.3922  137.1873  164.5419 C.3     1  UNL1        0.1107
     32 N         140.3958  137.6290  163.5113 N.am    1  UNL1       -0.3027
     33 C         139.2566  138.5223  163.9039 C.2     1  UNL1        0.2226
     34 O         139.1138  138.9740  165.3272 O.2     1  UNL1       -0.2751
     35 H         140.4895  137.3326  162.5771 H       1  UNL1        0.1495
@<TRIPOS>BOND
     1    31    32    1
     2    32    33   am
     3    33    34    2
     4    33    30    1
     5    30    29    1
     6    25    29    1
     7    25    26    1
     8    26    27    1
     9    25    21    1
    10    21    22    1
    11    21    23   am
    12    23    24    2
    13    23     1    1
    14     1     2   ar
    15     2     3   ar
    16     3     4   ar
    17     4     5   ar
    18     5     6   ar
    19     5     7   ar
    20     7     8   ar
    21     8     9   ar
    22     9    10    1
    23     8    11    1
    24    11    12    1
    25    12    13    1
    26    13    15    1
    27    15    16    1
    28    16    17    1
    29    17    18    1
    30    18    19    1
    31    19    20    1
    32    13    14    1
    33     6     1   ar
    34    14     7    1
    35     9     4   ar
    36    20    15    1
    37    32    35    1
    38    27    28    1
@<TRIPOS>MOLECULE
*****
 35 38 0 0 0
SMALL
GASTEIGER

@<TRIPOS>ATOM
      1 C         141.1840  140.4677  162.2975 C.ar    1  UNL1        0.0537
      2 C         141.6299  141.8858  162.0976 C.ar    1  UNL1        0.0060
      3 C         142.3137  142.2845  160.8234 C.ar    1  UNL1        0.0173
      4 C         142.5516  141.2651  159.7492 C.ar    1  UNL1        0.0594
      5 C         142.1057  139.8469  159.9490 C.ar    1  UNL1        0.0130
      6 C         141.4219  139.4482  161.2232 C.ar    1  UNL1        0.0057
      7 C         142.4740  139.0678  158.7213 C.ar    1  UNL1       -0.0091
      8 C         143.1475  140.0044  157.7626 C.ar    1  UNL1        0.0331
      9 N         143.1955  141.3624  158.3979 N.ar    1  UNL1       -0.3289
     10 C         143.7840  142.6004  157.7888 C.3     1  UNL1        0.1301
     11 C         143.6301  139.4998  156.4351 C.3     1  UNL1        0.0435
     12 C         143.4392  138.0585  156.0662 C.3     1  UNL1        0.0066
     13 C         142.7657  137.1218  157.0249 C.3     1  UNL1        0.0049
     14 C         142.2831  137.6265  158.3524 C.3     1  UNL1        0.0275
     15 C         142.5748  135.6804  156.6560 C.3     1  UNL1        0.0053
     16 C         143.3558  134.6147  157.3661 C.3     1  UNL1        0.0322
     17 C         143.1649  133.1734  156.9972 C.3     1  UNL1        0.1422
     18 O         142.1929  132.7977  155.9182 O.3     1  UNL1       -0.3538
     19 C         141.4119  133.8634  155.2081 C.3     1  UNL1        0.1422
     20 C         141.6028  135.3048  155.5770 C.3     1  UNL1        0.0322
     21 N         139.0046  139.9663  163.6197 N.am    1  UNL1       -0.2735
     22 C         138.3208  139.5675  164.8939 C.3     1  UNL1        0.1152
     23 C         140.5002  140.0690  163.5716 C.2     1  UNL1        0.2491
     24 O         141.3121  139.7730  164.7976 O.2     1  UNL1       -0.2699
     25 C         138.1926  140.2622  162.3937 C.3     1  UNL1        0.1054
     26 C         137.7001  139.1383  161.5309 C.3     1  UNL1        0.1568
     27 O         138.1211  137.7286  161.8231 O.3     1  UNL1       -0.3802
     28 H         139.0758  137.6393  161.6767 H       1  UNL1        0.2105
     29 C         137.8731  141.6821  162.0304 C.3     1  UNL1        0.0319
     30 C         137.6090  142.6909  163.1087 C.3     1  UNL1        0.0868
     31 C         139.6991  145.8355  161.8870 C.3     1  UNL1        0.1107
     32 N         138.9321  144.5466  161.8616 N.am    1  UNL1       -0.3027
     33 C         138.3760  143.9797  163.1341 C.2     1  UNL1        0.2226
     34 O         138.5868  144.7016  164.4320 O.2     1  UNL1       -0.2751
     35 H         138.7937  144.0728  161.0098 H       1  UNL1        0.1495
@<TRIPOS>BOND
     1    31    32    1
     2    32    33   am
     3    33    34    2
     4    33    30    1
     5    30    29    1
     6    25    29    1
     7    25    26    1
     8    26    27    1
     9    25    21    1
    10    21    22    1
    11    21    23   am
    12    23    24    2
    13    23     1    1
    14     1     2   ar
    15     2     3   ar
    16     3     4   ar
    17     4     5   ar
    18     5     6   ar
    19     5     7   ar
    20     7     8   ar
    21     8     9   ar
    22     9    10    1
    23     8    11    1
    24    11    12    1
    25    12    13    1
    26    13    15    1
    27    15    16    1
    28    16    17    1
    29    17    18    1
    30    18    19    1
    31    19    20    1
    32    13    14    1
    33     6     1   ar
    34    14     7    1
    35     9     4   ar
    36    20    15    1
    37    32    35    1
    38    27    28    1
@<TRIPOS>MOLECULE
*****
 35 38 0 0 0
SMALL
GASTEIGER

@<TRIPOS>ATOM
      1 C         140.5126  140.6228  159.0096 C.ar    1  UNL1        0.0537
      2 C         140.5408  141.8789  158.1903 C.ar    1  UNL1        0.0060
      3 C         140.4213  143.2150  158.8615 C.ar    1  UNL1        0.0173
      4 C         140.2736  143.2950  160.3520 C.ar    1  UNL1        0.0594
      5 C         140.2454  142.0389  161.1714 C.ar    1  UNL1        0.0130
      6 C         140.3649  140.7028  160.5002 C.ar    1  UNL1        0.0057
      7 C         140.0900  142.4283  162.6116 C.ar    1  UNL1       -0.0091
      8 C         140.0221  143.9250  162.6824 C.ar    1  UNL1        0.0331
      9 N         140.1356  144.4607  161.2859 N.ar    1  UNL1       -0.3289
     10 C         140.1147  145.9080  160.8923 C.3     1  UNL1        0.1301
     11 C         139.8657  144.6069  164.0092 C.3     1  UNL1        0.0435
     12 C         139.7772  143.7919  165.2654 C.3     1  UNL1        0.0066
     13 C         139.8451  142.2951  165.1947 C.3     1  UNL1        0.0049
     14 C         140.0015  141.6133  163.8677 C.3     1  UNL1        0.0275
     15 C         139.7566  141.4801  166.4508 C.3     1  UNL1        0.0053
     16 C         139.0122  140.1779  166.4491 C.3     1  UNL1        0.0322
     17 C         138.9237  139.3629  167.7053 C.3     1  UNL1        0.1422
     18 O         139.5796  139.8502  168.9633 O.3     1  UNL1       -0.3538
     19 C         140.3240  141.1524  168.9650 C.3     1  UNL1        0.1422
     20 C         140.4125  141.9674  167.7088 C.3     1  UNL1        0.0322
     21 N         141.9852  138.7401  157.9913 N.am    1  UNL1       -0.2735
     22 C         142.1047  137.4040  157.3201 C.3     1  UNL1        0.1152
     23 C         140.6322  139.2866  158.3384 C.2     1  UNL1        0.2491
     24 O         139.3987  138.4971  158.0144 O.2     1  UNL1       -0.2699
     25 C         143.2188  139.5297  158.3153 C.3     1  UNL1        0.1054
     26 C         143.8999  140.3296  157.2447 C.3     1  UNL1        0.1568
     27 O         145.3795  140.1975  157.0365 O.3     1  UNL1       -0.3802
     28 H         145.8472  140.5373  157.8154 H       1  UNL1        0.2105
     29 C         143.7711  139.5193  159.7098 C.3     1  UNL1        0.0319
     30 C         143.5560  138.3259  160.5928 C.3     1  UNL1        0.0868
     31 C         144.6547  139.4091  164.2493 C.3     1  UNL1        0.1107
     32 N         144.6570  139.2479  162.7579 N.am    1  UNL1       -0.3027
     33 C         143.5538  138.4871  162.0841 C.2     1  UNL1        0.2226
     34 O         142.4483  137.8874  162.9016 O.2     1  UNL1       -0.2751
     35 H         145.3826  139.6414  162.2213 H       1  UNL1        0.1495
@<TRIPOS>BOND
     1    31    32    1
     2    32    33   am
     3    33    34    2
     4    33    30    1
     5    30    29    1
     6    25    29    1
     7    25    26    1
     8    26    27    1
     9    25    21    1
    10    21    22    1
    11    21    23   am
    12    23    24    2
    13    23     1    1
    14     1     2   ar
    15     2     3   ar
    16     3     4   ar
    17     4     5   ar
    18     5     6   ar
    19     5     7   ar
    20     7     8   ar
    21     8     9   ar
    22     9    10    1
    23     8    11    1
    24    11    12    1
    25    12    13    1
    26    13    15    1
    27    15    16    1
    28    16    17    1
    29    17    18    1
    30    18    19    1
    31    19    20    1
    32    13    14    1
    33     6     1   ar
    34    14     7    1
    35     9     4   ar
    36    20    15    1
    37    32    35    1
    38    27    28    1
@<TRIPOS>MOLECULE
*****
 35 38 0 0 0
SMALL
GASTEIGER

@<TRIPOS>ATOM
      1 C         140.4307  140.3967  160.1443 C.ar    1  UNL1        0.0537
      2 C         139.9786  141.6252  159.4119 C.ar    1  UNL1        0.0060
      3 C         139.6408  142.8715  160.1751 C.ar    1  UNL1        0.0173
      4 C         139.7550  142.8894  161.6706 C.ar    1  UNL1        0.0594
      5 C         140.2071  141.6609  162.4029 C.ar    1  UNL1        0.0130
      6 C         140.5449  140.4145  161.6398 C.ar    1  UNL1        0.0057
      7 C         140.2240  141.9754  163.8696 C.ar    1  UNL1       -0.0091
      8 C         139.7824  143.3983  164.0436 C.ar    1  UNL1        0.0331
      9 N         139.4926  143.9631  162.6846 N.ar    1  UNL1       -0.3289
     10 C         139.0227  145.3571  162.3910 C.3     1  UNL1        0.1301
     11 C         139.7013  143.9957  165.4170 C.3     1  UNL1        0.0435
     12 C         140.0618  143.1703  166.6165 C.3     1  UNL1        0.0066
     13 C         140.5034  141.7474  166.4424 C.3     1  UNL1        0.0049
     14 C         140.5845  141.1499  165.0690 C.3     1  UNL1        0.0275
     15 C         140.8638  140.9219  167.6419 C.3     1  UNL1        0.0053
     16 C         142.1477  140.1465  167.6603 C.3     1  UNL1        0.0322
     17 C         142.5082  139.3210  168.8598 C.3     1  UNL1        0.1422
     18 O         141.5847  139.2710  170.0409 O.3     1  UNL1       -0.3538
     19 C         140.3009  140.0464  170.0224 C.3     1  UNL1        0.1422
     20 C         139.9404  140.8719  168.8230 C.3     1  UNL1        0.0322
     21 N         142.2000  138.8226  159.0758 N.am    1  UNL1       -0.2735
     22 C         142.5378  137.5763  158.3126 C.3     1  UNL1        0.1152
     23 C         140.7685  139.1503  159.3811 C.2     1  UNL1        0.2491
     24 O         139.6748  138.2316  158.9232 O.2     1  UNL1       -0.2699
     25 C         143.2938  139.7414  159.5336 C.3     1  UNL1        0.1054
     26 C         144.1681  139.3498  160.6879 C.3     1  UNL1        0.1568
     27 O         143.8370  139.8208  162.0730 O.3     1  UNL1       -0.3802
     28 H         143.9314  140.7851  162.1178 H       1  UNL1        0.2105
     29 C         143.5134  141.0516  158.8372 C.3     1  UNL1        0.0319
     30 C         144.3214  142.1274  159.5005 C.3     1  UNL1        0.0868
     31 C         143.3174  143.7393  162.9853 C.3     1  UNL1        0.1107
     32 N         143.9581  142.8360  161.9735 N.am    1  UNL1       -0.3027
     33 C         143.6807  143.0306  160.5123 C.2     1  UNL1        0.2226
     34 O         142.7626  144.1283  160.0628 O.2     1  UNL1       -0.2751
     35 H         144.5607  142.1155  162.2684 H       1  UNL1        0.1495
@<TRIPOS>BOND
     1    31    32    1
     2    32    33   am
     3    33    34    2
     4    33    30    1
     5    30    29    1
     6    25    29    1
     7    25    26    1
     8    26    27    1
     9    25    21    1
    10    21    22    1
    11    21    23   am
    12    23    24    2
    13    23     1    1
    14     1     2   ar
    15     2     3   ar
    16     3     4   ar
    17     4     5   ar
    18     5     6   ar
    19     5     7   ar
    20     7     8   ar
    21     8     9   ar
    22     9    10    1
    23     8    11    1
    24    11    12    1
    25    12    13    1
    26    13    15    1
    27    15    16    1
    28    16    17    1
    29    17    18    1
    30    18    19    1
    31    19    20    1
    32    13    14    1
    33     6     1   ar
    34    14     7    1
    35     9     4   ar
    36    20    15    1
    37    32    35    1
    38    27    28    1
@<TRIPOS>MOLECULE
*****
 35 38 0 0 0
SMALL
GASTEIGER

@<TRIPOS>ATOM
      1 C         139.7264  143.0387  160.6566 C.ar    1  UNL1        0.0537
      2 C         139.1228  142.0296  159.7253 C.ar    1  UNL1        0.0060
      3 C         138.6269  140.7186  160.2594 C.ar    1  UNL1        0.0173
      4 C         138.7347  140.4166  161.7247 C.ar    1  UNL1        0.0594
      5 C         139.3383  141.4257  162.6559 C.ar    1  UNL1        0.0130
      6 C         139.8342  142.7368  162.1219 C.ar    1  UNL1        0.0057
      7 C         139.3117  140.8519  164.0416 C.ar    1  UNL1       -0.0091
      8 C         138.6917  139.4881  163.9667 C.ar    1  UNL1        0.0331
      9 N         138.3350  139.2191  162.5348 N.ar    1  UNL1       -0.3289
     10 C         137.6917  137.9716  162.0058 C.3     1  UNL1        0.1301
     11 C         138.5319  138.6674  165.2120 C.3     1  UNL1        0.0435
     12 C         138.9922  139.2105  166.5323 C.3     1  UNL1        0.0066
     13 C         139.6123  140.5743  166.6072 C.3     1  UNL1        0.0049
     14 C         139.7720  141.3950  165.3619 C.3     1  UNL1        0.0275
     15 C         140.0726  141.1174  167.9275 C.3     1  UNL1        0.0053
     16 C         140.5213  142.5446  168.0361 C.3     1  UNL1        0.0322
     17 C         140.9816  143.0877  169.3564 C.3     1  UNL1        0.1422
     18 O         140.9932  142.2035  170.5682 O.3     1  UNL1       -0.3538
     19 C         140.5444  140.7764  170.4596 C.3     1  UNL1        0.1422
     20 C         140.0841  140.2333  169.1393 C.3     1  UNL1        0.0322
     21 N         141.4065  144.3853  159.2026 N.am    1  UNL1       -0.2735
     22 C         141.9023  145.6963  158.6685 C.3     1  UNL1        0.1152
     23 C         140.2223  144.3498  160.1225 C.2     1  UNL1        0.2491
     24 O         139.5340  145.6254  160.5085 O.2     1  UNL1       -0.2699
     25 C         142.0949  143.1096  158.8166 C.3     1  UNL1        0.1054
     26 C         142.0352  142.6246  157.3984 C.3     1  UNL1        0.1568
     27 O         141.9620  141.1543  157.1110 O.3     1  UNL1       -0.3802
     28 H         142.7863  140.7281  157.3938 H       1  UNL1        0.2105
     29 C         142.8428  142.3190  159.8488 C.3     1  UNL1        0.0319
     30 C         144.1131  142.8615  160.4338 C.3     1  UNL1        0.0868
     31 C         143.3374  145.1847  163.5563 C.3     1  UNL1        0.1107
     32 N         143.3284  144.6379  162.1596 N.am    1  UNL1       -0.3027
     33 C         144.1221  143.4083  161.8305 C.2     1  UNL1        0.2226
     34 O         144.9246  142.7256  162.8981 O.2     1  UNL1       -0.2751
     35 H         142.8017  145.0859  161.4588 H       1  UNL1        0.1495
@<TRIPOS>BOND
     1    31    32    1
     2    32    33   am
     3    33    34    2
     4    33    30    1
     5    30    29    1
     6    25    29    1
     7    25    26    1
     8    26    27    1
     9    25    21    1
    10    21    22    1
    11    21    23   am
    12    23    24    2
    13    23     1    1
    14     1     2   ar
    15     2     3   ar
    16     3     4   ar
    17     4     5   ar
    18     5     6   ar
    19     5     7   ar
    20     7     8   ar
    21     8     9   ar
    22     9    10    1
    23     8    11    1
    24    11    12    1
    25    12    13    1
    26    13    15    1
    27    15    16    1
    28    16    17    1
    29    17    18    1
    30    18    19    1
    31    19    20    1
    32    13    14    1
    33     6     1   ar
    34    14     7    1
    35     9     4   ar
    36    20    15    1
    37    32    35    1
    38    27    28    1
