@<TRIPOS>MOLECULE
*****
 34 36 0 0 0
SMALL
GASTEIGER

@<TRIPOS>ATOM
      1 S         139.8982  138.8612  161.8507 S.O2    1  UNL1        0.0768
      2 O         140.0467  137.4605  162.3664 O.2     1  UNL1       -0.1498
      3 O         139.7498  140.2619  161.3350 O.2     1  UNL1       -0.1498
      4 N         138.8122  140.1020  165.4606 N.am    1  UNL1       -0.2671
      5 C         139.6689  139.7575  164.2785 C.2     1  UNL1        0.3231
      6 O         141.1532  139.9648  164.3421 O.2     1  UNL1       -0.2509
      7 N         139.0414  139.2057  163.0328 N.am    1  UNL1       -0.1690
      8 H         137.8380  139.9659  165.4188 H       1  UNL1        0.1565
      9 H         138.0673  139.0697  162.9910 H       1  UNL1        0.1781
     10 C         140.6946  141.7573  169.1977 C.ar    1  UNL1        0.0348
     11 C         140.0743  140.3916  169.2120 C.ar    1  UNL1        0.0041
     12 C         139.4468  139.8399  167.9663 C.ar    1  UNL1        0.0148
     13 C         139.4397  140.6537  166.7063 C.ar    1  UNL1        0.0516
     14 C         140.0600  142.0193  166.6921 C.ar    1  UNL1        0.0148
     15 C         140.6875  142.5711  167.9378 C.ar    1  UNL1        0.0041
     16 C         142.6233  143.0508  170.3626 C.3     1  UNL1        0.0773
     17 C         141.3221  142.3090  170.4435 C.2     1  UNL1        0.1735
     18 O         140.6484  142.1190  171.7701 O.2     1  UNL1       -0.2913
     19 C         140.7550  138.5168  160.6687 C.ar    1  UNL1        0.1255
     20 C         140.2150  138.6782  159.2785 C.ar    1  UNL1        0.0233
     21 C         141.0718  138.3338  158.0964 C.ar    1  UNL1        0.0383
     22 C         142.4685  137.8280  158.3045 C.ar    1  UNL1        0.1386
     23 C         143.0085  137.6666  159.6945 C.ar    1  UNL1        0.0383
     24 C         142.1517  138.0110  160.8767 C.ar    1  UNL1        0.0233
     25 O         143.3253  137.4836  157.1224 O.3     1  UNL1       -0.4754
     26 C         142.7050  137.3329  155.7650 C.3     1  UNL1        0.2068
     27 C         142.5756  135.9726  155.1463 C.3     1  UNL1        0.0646
     28 C         142.1680  134.8009  155.9894 C.3     1  UNL1        0.0759
     29 N         143.1648  133.7283  156.3151 N.3     1  UNL1       -0.2726
     30 C         143.4324  132.6291  155.3302 C.3     1  UNL1        0.0721
     31 C         144.4292  131.5565  155.6558 C.3     1  UNL1        0.0174
     32 C         145.1584  131.5832  156.9663 C.3     1  UNL1        0.0029
     33 C         144.8908  132.6825  157.9513 C.3     1  UNL1        0.0174
     34 C         143.8940  133.7550  157.6256 C.3     1  UNL1        0.0721
@<TRIPOS>BOND
     1    16    17    1
     2    17    18    2
     3    17    10    1
     4    10    11   ar
     5    11    12   ar
     6    12    13   ar
     7    13     4    1
     8     4     5   am
     9     5     6    2
    10     5     7   am
    11     7     1    1
    12     1     2    2
    13     1     3    2
    14     1    19    1
    15    19    20   ar
    16    20    21   ar
    17    21    22   ar
    18    22    25    1
    19    25    26    1
    20    26    27    1
    21    27    28    1
    22    28    29    1
    23    29    30    1
    24    30    31    1
    25    31    32    1
    26    32    33    1
    27    33    34    1
    28    22    23   ar
    29    23    24   ar
    30    13    14   ar
    31    14    15   ar
    32    15    10   ar
    33    24    19   ar
    34    34    29    1
    35     4     8    1
    36     7     9    1
@<TRIPOS>MOLECULE
*****
 34 36 0 0 0
SMALL
GASTEIGER

@<TRIPOS>ATOM
      1 S         143.0248  140.0520  158.4952 S.O2    1  UNL1        0.0768
      2 O         142.0875  140.5680  157.4439 O.2     1  UNL1       -0.1498
      3 O         143.9620  139.5360  159.5464 O.2     1  UNL1       -0.1498
      4 N         143.7941  136.8891  156.2249 N.am    1  UNL1       -0.2671
      5 C         143.1435  137.7793  157.2418 C.2     1  UNL1        0.3231
      6 O         141.9609  137.2871  158.0224 O.2     1  UNL1       -0.2509
      7 N         143.6755  139.1617  157.4782 N.am    1  UNL1       -0.1690
      8 H         144.5703  137.2121  155.7126 H       1  UNL1        0.1565
      9 H         144.4516  139.4848  156.9659 H       1  UNL1        0.1781
     10 C         142.1982  132.7417  155.5157 C.ar    1  UNL1        0.0348
     11 C         142.9540  133.0495  156.7743 C.ar    1  UNL1        0.0041
     12 C         143.4860  134.4319  157.0107 C.ar    1  UNL1        0.0148
     13 C         143.2621  135.5066  155.9885 C.ar    1  UNL1        0.0516
     14 C         142.5063  135.1989  154.7300 C.ar    1  UNL1        0.0148
     15 C         141.9744  133.8165  154.4936 C.ar    1  UNL1        0.0041
     16 C         140.4167  131.1643  154.4728 C.3     1  UNL1        0.0773
     17 C         141.6663  131.3593  155.2793 C.2     1  UNL1        0.1735
     18 O         142.3838  130.1719  155.8495 O.2     1  UNL1       -0.2913
     19 C         142.3742  140.9422  159.5121 C.ar    1  UNL1        0.1255
     20 C         142.0945  142.3785  159.1821 C.ar    1  UNL1        0.0233
     21 C         141.4439  143.2687  160.1991 C.ar    1  UNL1        0.0383
     22 C         141.0729  142.7227  161.5460 C.ar    1  UNL1        0.1386
     23 C         141.3526  141.2864  161.8760 C.ar    1  UNL1        0.0383
     24 C         142.0033  140.3961  160.8590 C.ar    1  UNL1        0.0233
     25 O         140.4223  143.6129  162.5630 O.3     1  UNL1       -0.4754
     26 C         140.9095  145.0192  162.7498 C.3     1  UNL1        0.2068
     27 C         141.9475  145.3214  163.7896 C.3     1  UNL1        0.0646
     28 C         143.3967  145.0655  163.4992 C.3     1  UNL1        0.0759
     29 N         143.9066  143.6575  163.4107 N.3     1  UNL1       -0.2726
     30 C         144.6346  143.1993  162.1818 C.3     1  UNL1        0.0721
     31 C         145.1445  141.7914  162.0933 C.3     1  UNL1        0.0174
     32 C         144.9263  140.8417  163.2337 C.3     1  UNL1        0.0029
     33 C         144.1983  141.2999  164.4626 C.3     1  UNL1        0.0174
     34 C         143.6884  142.7078  164.5510 C.3     1  UNL1        0.0721
@<TRIPOS>BOND
     1    16    17    1
     2    17    18    2
     3    17    10    1
     4    10    11   ar
     5    11    12   ar
     6    12    13   ar
     7    13     4    1
     8     4     5   am
     9     5     6    2
    10     5     7   am
    11     7     1    1
    12     1     2    2
    13     1     3    2
    14     1    19    1
    15    19    20   ar
    16    20    21   ar
    17    21    22   ar
    18    22    25    1
    19    25    26    1
    20    26    27    1
    21    27    28    1
    22    28    29    1
    23    29    30    1
    24    30    31    1
    25    31    32    1
    26    32    33    1
    27    33    34    1
    28    22    23   ar
    29    23    24   ar
    30    13    14   ar
    31    14    15   ar
    32    15    10   ar
    33    24    19   ar
    34    34    29    1
    35     4     8    1
    36     7     9    1
@<TRIPOS>MOLECULE
*****
 34 36 0 0 0
SMALL
GASTEIGER

@<TRIPOS>ATOM
      1 S         141.8595  138.1972  162.2084 S.O2    1  UNL1        0.0768
      2 O         143.0840  139.0443  162.0268 O.2     1  UNL1       -0.1498
      3 O         140.6350  137.3501  162.3900 O.2     1  UNL1       -0.1498
      4 N         142.2119  138.7071  166.1283 N.am    1  UNL1       -0.2671
      5 C         141.8347  138.9455  164.6963 C.2     1  UNL1        0.3231
      6 O         141.0553  140.1707  164.3199 O.2     1  UNL1       -0.2509
      7 N         142.2368  137.9588  163.6405 N.am    1  UNL1       -0.1690
      8 H         142.7234  137.9030  166.3753 H       1  UNL1        0.1565
      9 H         142.7483  137.1547  163.8874 H       1  UNL1        0.1781
     10 C         141.0056  141.6672  169.2957 C.ar    1  UNL1        0.0348
     11 C         142.4564  141.4605  168.9759 C.ar    1  UNL1        0.0041
     12 C         142.8585  140.4738  167.9201 C.ar    1  UNL1        0.0148
     13 C         141.8098  139.6938  167.1841 C.ar    1  UNL1        0.0516
     14 C         140.3590  139.9005  167.5039 C.ar    1  UNL1        0.0148
     15 C         139.9569  140.8872  168.5597 C.ar    1  UNL1        0.0041
     16 C         140.2906  144.0713  169.9732 C.3     1  UNL1        0.0773
     17 C         140.6035  142.6540  170.3515 C.2     1  UNL1        0.1735
     18 O         140.5143  142.2233  171.7855 O.2     1  UNL1       -0.2913
     19 C         141.4822  138.4357  160.7763 C.ar    1  UNL1        0.1255
     20 C         142.5506  138.5878  159.7345 C.ar    1  UNL1        0.0233
     21 C         142.1733  138.8262  158.3025 C.ar    1  UNL1        0.0383
     22 C         140.7276  138.9125  157.9122 C.ar    1  UNL1        0.1386
     23 C         139.6591  138.7604  158.9539 C.ar    1  UNL1        0.0383
     24 C         140.0364  138.5220  160.3860 C.ar    1  UNL1        0.0233
     25 O         140.3502  139.1510  156.4802 O.3     1  UNL1       -0.4754
     26 C         140.3680  138.0149  155.5007 C.3     1  UNL1        0.2068
     27 C         140.7456  136.6369  155.9572 C.3     1  UNL1        0.0646
     28 C         141.9134  135.9334  155.3318 C.3     1  UNL1        0.0759
     29 N         142.3769  134.6163  155.8799 N.3     1  UNL1       -0.2726
     30 C         143.4908  134.5718  156.8836 C.3     1  UNL1        0.0721
     31 C         143.9542  133.2546  157.4317 C.3     1  UNL1        0.0174
     32 C         143.3038  131.9820  156.9762 C.3     1  UNL1        0.0029
     33 C         142.1899  132.0266  155.9725 C.3     1  UNL1        0.0174
     34 C         141.7265  133.3437  155.4244 C.3     1  UNL1        0.0721
@<TRIPOS>BOND
     1    16    17    1
     2    17    18    2
     3    17    10    1
     4    10    11   ar
     5    11    12   ar
     6    12    13   ar
     7    13     4    1
     8     4     5   am
     9     5     6    2
    10     5     7   am
    11     7     1    1
    12     1     2    2
    13     1     3    2
    14     1    19    1
    15    19    20   ar
    16    20    21   ar
    17    21    22   ar
    18    22    25    1
    19    25    26    1
    20    26    27    1
    21    27    28    1
    22    28    29    1
    23    29    30    1
    24    30    31    1
    25    31    32    1
    26    32    33    1
    27    33    34    1
    28    22    23   ar
    29    23    24   ar
    30    13    14   ar
    31    14    15   ar
    32    15    10   ar
    33    24    19   ar
    34    34    29    1
    35     4     8    1
    36     7     9    1
@<TRIPOS>MOLECULE
*****
 34 36 0 0 0
SMALL
GASTEIGER

@<TRIPOS>ATOM
      1 S         143.1742  140.0490  159.0260 S.O2    1  UNL1        0.0768
      2 O         142.2963  140.8767  158.1349 O.2     1  UNL1       -0.1498
      3 O         144.0522  139.2214  159.9172 O.2     1  UNL1       -0.1498
      4 N         143.9483  137.6128  155.9903 N.am    1  UNL1       -0.2671
      5 C         143.2843  138.2075  157.1967 C.2     1  UNL1        0.3231
      6 O         142.0660  137.5552  157.7801 O.2     1  UNL1       -0.2509
      7 N         143.8384  139.4544  157.8196 N.am    1  UNL1       -0.1690
      8 H         144.7479  138.0409  155.6074 H       1  UNL1        0.1565
      9 H         144.6380  139.8825  157.4367 H       1  UNL1        0.1781
     10 C         142.2859  133.8720  154.1214 C.ar    1  UNL1        0.0348
     11 C         141.9466  135.2138  153.5433 C.ar    1  UNL1        0.0041
     12 C         142.5007  136.4608  154.1662 C.ar    1  UNL1        0.0148
     13 C         143.3942  136.3659  155.3673 C.ar    1  UNL1        0.0516
     14 C         143.7335  135.0240  155.9455 C.ar    1  UNL1        0.0148
     15 C         143.1793  133.7771  155.3226 C.ar    1  UNL1        0.0041
     16 C         142.0533  132.2928  152.0716 C.3     1  UNL1        0.0773
     17 C         141.7317  132.6251  153.4985 C.2     1  UNL1        0.1735
     18 O         140.8561  131.7104  154.3025 O.2     1  UNL1       -0.2913
     19 C         142.5102  140.6436  160.2324 C.ar    1  UNL1        0.1255
     20 C         142.1392  139.7679  161.3924 C.ar    1  UNL1        0.0233
     21 C         141.4751  140.3624  162.5988 C.ar    1  UNL1        0.0383
     22 C         141.1820  141.8328  162.6453 C.ar    1  UNL1        0.1386
     23 C         141.5529  142.7085  161.4854 C.ar    1  UNL1        0.0383
     24 C         142.2171  142.1140  160.2789 C.ar    1  UNL1        0.0233
     25 O         140.5179  142.4274  163.8517 O.3     1  UNL1       -0.4754
     26 C         139.3154  143.3090  163.6878 C.3     1  UNL1        0.2068
     27 C         137.9542  142.7967  164.0545 C.3     1  UNL1        0.0646
     28 C         137.3043  141.7318  163.2217 C.3     1  UNL1        0.0759
     29 N         137.8489  140.3341  163.2330 N.3     1  UNL1       -0.2726
     30 C         138.3448  139.7327  164.5145 C.3     1  UNL1        0.0721
     31 C         138.8895  138.3351  164.5257 C.3     1  UNL1        0.0174
     32 C         138.9382  137.5389  163.2554 C.3     1  UNL1        0.0029
     33 C         138.4422  138.1404  161.9738 C.3     1  UNL1        0.0174
     34 C         137.8976  139.5380  161.9626 C.3     1  UNL1        0.0721
@<TRIPOS>BOND
     1    16    17    1
     2    17    18    2
     3    17    10    1
     4    10    11   ar
     5    11    12   ar
     6    12    13   ar
     7    13     4    1
     8     4     5   am
     9     5     6    2
    10     5     7   am
    11     7     1    1
    12     1     2    2
    13     1     3    2
    14     1    19    1
    15    19    20   ar
    16    20    21   ar
    17    21    22   ar
    18    22    25    1
    19    25    26    1
    20    26    27    1
    21    27    28    1
    22    28    29    1
    23    29    30    1
    24    30    31    1
    25    31    32    1
    26    32    33    1
    27    33    34    1
    28    22    23   ar
    29    23    24   ar
    30    13    14   ar
    31    14    15   ar
    32    15    10   ar
    33    24    19   ar
    34    34    29    1
    35     4     8    1
    36     7     9    1
@<TRIPOS>MOLECULE
*****
 34 36 0 0 0
SMALL
GASTEIGER

@<TRIPOS>ATOM
      1 S         141.0504  144.1970  162.8371 S.O2    1  UNL1        0.0768
      2 O         139.7640  144.9514  162.9984 O.2     1  UNL1       -0.1498
      3 O         142.3368  143.4426  162.6758 O.2     1  UNL1       -0.1498
      4 N         141.6558  145.9248  159.3160 N.am    1  UNL1       -0.2671
      5 C         141.2063  144.9371  160.3515 C.2     1  UNL1        0.3231
      6 O         140.4634  143.7016  159.9371 O.2     1  UNL1       -0.2509
      7 N         141.4998  145.1848  161.8015 N.am    1  UNL1       -0.1690
      8 H         142.1434  146.7356  159.5880 H       1  UNL1        0.1565
      9 H         141.9875  145.9956  162.0735 H       1  UNL1        0.1781
     10 C         140.7753  145.1816  154.9659 C.ar    1  UNL1        0.0348
     11 C         139.8407  146.0187  155.7880 C.ar    1  UNL1        0.0041
     12 C         140.1342  146.2664  157.2380 C.ar    1  UNL1        0.0148
     13 C         141.3623  145.6771  157.8659 C.ar    1  UNL1        0.0516
     14 C         142.2969  144.8400  157.0439 C.ar    1  UNL1        0.0148
     15 C         142.0034  144.5923  155.5939 C.ar    1  UNL1        0.0041
     16 C         139.4314  143.9380  153.1228 C.3     1  UNL1        0.0773
     17 C         140.4818  144.9339  153.5159 C.2     1  UNL1        0.1735
     18 O         141.2388  145.6822  152.4590 O.2     1  UNL1       -0.2913
     19 C         140.6009  143.2093  163.8726 C.ar    1  UNL1        0.1255
     20 C         140.2641  143.6758  165.2579 C.ar    1  UNL1        0.0233
     21 C         139.8147  142.6881  166.2934 C.ar    1  UNL1        0.0383
     22 C         139.7021  141.2338  165.9437 C.ar    1  UNL1        0.1386
     23 C         140.0389  140.7672  164.5585 C.ar    1  UNL1        0.0383
     24 C         140.4883  141.7549  163.5229 C.ar    1  UNL1        0.0233
     25 O         139.2527  140.2460  166.9792 O.3     1  UNL1       -0.4754
     26 C         139.5806  140.4737  168.4252 C.3     1  UNL1        0.2068
     27 C         140.8546  139.9291  169.0000 C.3     1  UNL1        0.0646
     28 C         142.1360  140.6920  168.8396 C.3     1  UNL1        0.0759
     29 N         142.7555  140.8406  167.4816 N.3     1  UNL1       -0.2726
     30 C         143.1987  142.1914  167.0031 C.3     1  UNL1        0.0721
     31 C         143.8182  142.3400  165.6451 C.3     1  UNL1        0.0174
     32 C         143.9944  141.1377  164.7655 C.3     1  UNL1        0.0029
     33 C         143.5512  139.7869  165.2441 C.3     1  UNL1        0.0174
     34 C         142.9318  139.6384  166.6021 C.3     1  UNL1        0.0721
@<TRIPOS>BOND
     1    16    17    1
     2    17    18    2
     3    17    10    1
     4    10    11   ar
     5    11    12   ar
     6    12    13   ar
     7    13     4    1
     8     4     5   am
     9     5     6    2
    10     5     7   am
    11     7     1    1
    12     1     2    2
    13     1     3    2
    14     1    19    1
    15    19    20   ar
    16    20    21   ar
    17    21    22   ar
    18    22    25    1
    19    25    26    1
    20    26    27    1
    21    27    28    1
    22    28    29    1
    23    29    30    1
    24    30    31    1
    25    31    32    1
    26    32    33    1
    27    33    34    1
    28    22    23   ar
    29    23    24   ar
    30    13    14   ar
    31    14    15   ar
    32    15    10   ar
    33    24    19   ar
    34    34    29    1
    35     4     8    1
    36     7     9    1
@<TRIPOS>MOLECULE
*****
 34 36 0 0 0
SMALL
GASTEIGER

@<TRIPOS>ATOM
      1 S         143.0375  139.9181  161.0032 S.O2    1  UNL1        0.0768
      2 O         141.9715  140.8779  160.5647 O.2     1  UNL1       -0.1498
      3 O         144.1035  138.9583  161.4417 O.2     1  UNL1       -0.1498
      4 N         143.3149  138.2425  157.4164 N.am    1  UNL1       -0.2671
      5 C         142.9311  138.4706  158.8483 C.2     1  UNL1        0.3231
      6 O         142.0570  137.4791  159.5576 O.2     1  UNL1       -0.2509
      7 N         143.4214  139.6901  159.5711 N.am    1  UNL1       -0.1690
      8 H         143.8886  138.8932  156.9509 H       1  UNL1        0.1565
      9 H         143.9950  140.3408  159.1056 H       1  UNL1        0.1781
     10 C         141.8442  134.5839  155.2480 C.ar    1  UNL1        0.0348
     11 C         141.0111  135.8310  155.2653 C.ar    1  UNL1        0.0041
     12 C         141.5013  137.0506  155.9881 C.ar    1  UNL1        0.0148
     13 C         142.8247  137.0229  156.6936 C.ar    1  UNL1        0.0516
     14 C         143.6579  135.7758  156.6763 C.ar    1  UNL1        0.0148
     15 C         143.1676  134.5562  155.9535 C.ar    1  UNL1        0.0041
     16 C         141.0920  133.4218  153.0495 C.3     1  UNL1        0.0773
     17 C         141.3540  133.3643  154.5252 C.2     1  UNL1        0.1735
     18 O         141.1257  132.0873  155.2783 O.2     1  UNL1       -0.2913
     19 C         142.6537  140.1461  162.4352 C.ar    1  UNL1        0.1255
     20 C         141.7148  141.2603  162.7918 C.ar    1  UNL1        0.0233
     21 C         141.3310  141.4883  164.2238 C.ar    1  UNL1        0.0383
     22 C         141.8861  140.6022  165.2992 C.ar    1  UNL1        0.1386
     23 C         142.8249  139.4880  164.9427 C.ar    1  UNL1        0.0383
     24 C         143.2088  139.2600  163.5107 C.ar    1  UNL1        0.0233
     25 O         141.5023  140.8302  166.7312 O.3     1  UNL1       -0.4754
     26 C         140.0680  140.7049  167.1524 C.3     1  UNL1        0.2068
     27 C         139.2622  139.5141  166.7253 C.3     1  UNL1        0.0646
     28 C         138.2476  139.6494  165.6288 C.3     1  UNL1        0.0759
     29 N         138.6007  139.2499  164.2267 N.3     1  UNL1       -0.2726
     30 C         139.5040  138.0769  163.9861 C.3     1  UNL1        0.0721
     31 C         139.8572  137.6774  162.5840 C.3     1  UNL1        0.0174
     32 C         139.3069  138.4510  161.4226 C.3     1  UNL1        0.0029
     33 C         138.4035  139.6240  161.6633 C.3     1  UNL1        0.0174
     34 C         138.0504  140.0235  163.0654 C.3     1  UNL1        0.0721
@<TRIPOS>BOND
     1    16    17    1
     2    17    18    2
     3    17    10    1
     4    10    11   ar
     5    11    12   ar
     6    12    13   ar
     7    13     4    1
     8     4     5   am
     9     5     6    2
    10     5     7   am
    11     7     1    1
    12     1     2    2
    13     1     3    2
    14     1    19    1
    15    19    20   ar
    16    20    21   ar
    17    21    22   ar
    18    22    25    1
    19    25    26    1
    20    26    27    1
    21    27    28    1
    22    28    29    1
    23    29    30    1
    24    30    31    1
    25    31    32    1
    26    32    33    1
    27    33    34    1
    28    22    23   ar
    29    23    24   ar
    30    13    14   ar
    31    14    15   ar
    32    15    10   ar
    33    24    19   ar
    34    34    29    1
    35     4     8    1
    36     7     9    1
@<TRIPOS>MOLECULE
*****
 34 36 0 0 0
SMALL
GASTEIGER

@<TRIPOS>ATOM
      1 S         142.9734  139.9631  158.3881 S.O2    1  UNL1        0.0768
      2 O         143.9403  139.5259  159.4482 O.2     1  UNL1       -0.1498
      3 O         142.0065  140.4002  157.3280 O.2     1  UNL1       -0.1498
      4 N         143.7894  136.7696  156.1777 N.am    1  UNL1       -0.2671
      5 C         143.1155  137.6749  157.1657 C.2     1  UNL1        0.3231
      6 O         141.9098  137.1973  157.9195 O.2     1  UNL1       -0.2509
      7 N         143.6473  139.0577  157.4000 N.am    1  UNL1       -0.1690
      8 H         144.5808  137.0830  155.6829 H       1  UNL1        0.1565
      9 H         144.4387  139.3712  156.9053 H       1  UNL1        0.1781
     10 C         142.1940  132.6210  155.4748 C.ar    1  UNL1        0.0348
     11 C         142.9371  132.9345  156.7395 C.ar    1  UNL1        0.0041
     12 C         143.4689  134.3174  156.9738 C.ar    1  UNL1        0.0148
     13 C         143.2576  135.3867  155.9434 C.ar    1  UNL1        0.0516
     14 C         142.5145  135.0732  154.6787 C.ar    1  UNL1        0.0148
     15 C         141.9827  133.6904  154.4445 C.ar    1  UNL1        0.0041
     16 C         140.3719  131.0463  154.5002 C.3     1  UNL1        0.0773
     17 C         141.6622  131.2382  155.2406 C.2     1  UNL1        0.1735
     18 O         142.4207  130.0472  155.7467 O.2     1  UNL1       -0.2913
     19 C         142.2994  140.8683  159.3761 C.ar    1  UNL1        0.1255
     20 C         142.2769  140.5059  160.8315 C.ar    1  UNL1        0.0233
     21 C         141.6029  141.4111  161.8196 C.ar    1  UNL1        0.0383
     22 C         140.9515  142.6789  161.3522 C.ar    1  UNL1        0.1386
     23 C         140.9740  143.0414  159.8969 C.ar    1  UNL1        0.0383
     24 C         141.6480  142.1361  158.9088 C.ar    1  UNL1        0.0233
     25 O         140.2775  143.5842  162.3402 O.3     1  UNL1       -0.4754
     26 C         139.3472  143.0121  163.3685 C.3     1  UNL1        0.2068
     27 C         137.8958  142.8198  163.0424 C.3     1  UNL1        0.0646
     28 C         137.3257  141.4357  162.9462 C.3     1  UNL1        0.0759
     29 N         138.0072  140.4009  162.1006 N.3     1  UNL1       -0.2726
     30 C         138.0817  140.5784  160.6130 C.3     1  UNL1        0.0721
     31 C         138.7632  139.5437  159.7674 C.3     1  UNL1        0.0174
     32 C         139.3702  138.3315  160.4095 C.3     1  UNL1        0.0029
     33 C         139.2956  138.1541  161.8972 C.3     1  UNL1        0.0174
     34 C         138.6142  139.1888  162.7427 C.3     1  UNL1        0.0721
@<TRIPOS>BOND
     1    16    17    1
     2    17    18    2
     3    17    10    1
     4    10    11   ar
     5    11    12   ar
     6    12    13   ar
     7    13     4    1
     8     4     5   am
     9     5     6    2
    10     5     7   am
    11     7     1    1
    12     1     2    2
    13     1     3    2
    14     1    19    1
    15    19    20   ar
    16    20    21   ar
    17    21    22   ar
    18    22    25    1
    19    25    26    1
    20    26    27    1
    21    27    28    1
    22    28    29    1
    23    29    30    1
    24    30    31    1
    25    31    32    1
    26    32    33    1
    27    33    34    1
    28    22    23   ar
    29    23    24   ar
    30    13    14   ar
    31    14    15   ar
    32    15    10   ar
    33    24    19   ar
    34    34    29    1
    35     4     8    1
    36     7     9    1
@<TRIPOS>MOLECULE
*****
 34 36 0 0 0
SMALL
GASTEIGER

@<TRIPOS>ATOM
      1 S         138.4884  139.0605  161.3701 S.O2    1  UNL1        0.0768
      2 O         137.1366  139.7074  161.4328 O.2     1  UNL1       -0.1498
      3 O         139.8403  138.4135  161.3073 O.2     1  UNL1       -0.1498
      4 N         138.5994  140.4769  157.6645 N.am    1  UNL1       -0.2671
      5 C         138.6428  140.4222  159.1628 C.2     1  UNL1        0.3231
      6 O         138.8838  141.6746  159.9524 O.2     1  UNL1       -0.2509
      7 N         138.4451  139.1151  159.8716 N.am    1  UNL1       -0.1690
      8 H         138.4412  139.6549  157.1463 H       1  UNL1        0.1565
      9 H         138.2869  138.2931  159.3534 H       1  UNL1        0.1781
     10 C         139.1925  144.3982  155.5380 C.ar    1  UNL1        0.0348
     11 C         140.3813  143.5921  155.9702 C.ar    1  UNL1        0.0041
     12 C         140.1837  142.2850  156.6790 C.ar    1  UNL1        0.0148
     13 C         138.7971  141.7840  156.9556 C.ar    1  UNL1        0.0516
     14 C         137.6083  142.5901  156.5234 C.ar    1  UNL1        0.0148
     15 C         137.8060  143.8972  155.8146 C.ar    1  UNL1        0.0041
     16 C         140.5821  145.9037  153.9403 C.3     1  UNL1        0.0773
     17 C         139.3902  145.7053  154.8292 C.2     1  UNL1        0.1735
     18 O         138.3961  146.8140  155.0092 O.2     1  UNL1       -0.2913
     19 C         138.5318  139.0058  162.8684 C.ar    1  UNL1        0.1255
     20 C         138.9798  137.7526  163.5606 C.ar    1  UNL1        0.0233
     21 C         139.0232  137.6979  165.0589 C.ar    1  UNL1        0.0383
     22 C         138.6187  138.8964  165.8652 C.ar    1  UNL1        0.1386
     23 C         138.1707  140.1495  165.1731 C.ar    1  UNL1        0.0383
     24 C         138.1273  140.2042  163.6747 C.ar    1  UNL1        0.0233
     25 O         138.6620  138.8417  167.3635 O.3     1  UNL1       -0.4754
     26 C         139.2198  139.9974  168.1404 C.3     1  UNL1        0.2068
     27 C         140.6200  139.9360  168.6746 C.3     1  UNL1        0.0646
     28 C         141.7474  140.5456  167.8953 C.3     1  UNL1        0.0759
     29 N         141.9433  140.1845  166.4526 N.3     1  UNL1       -0.2726
     30 C         142.4456  138.8205  166.0824 C.3     1  UNL1        0.0721
     31 C         142.6415  138.4595  164.6396 C.3     1  UNL1        0.0174
     32 C         142.3350  139.4625  163.5672 C.3     1  UNL1        0.0029
     33 C         141.8326  140.8265  163.9375 C.3     1  UNL1        0.0174
     34 C         141.6368  141.1875  165.3802 C.3     1  UNL1        0.0721
@<TRIPOS>BOND
     1    16    17    1
     2    17    18    2
     3    17    10    1
     4    10    11   ar
     5    11    12   ar
     6    12    13   ar
     7    13     4    1
     8     4     5   am
     9     5     6    2
    10     5     7   am
    11     7     1    1
    12     1     2    2
    13     1     3    2
    14     1    19    1
    15    19    20   ar
    16    20    21   ar
    17    21    22   ar
    18    22    25    1
    19    25    26    1
    20    26    27    1
    21    27    28    1
    22    28    29    1
    23    29    30    1
    24    30    31    1
    25    31    32    1
    26    32    33    1
    27    33    34    1
    28    22    23   ar
    29    23    24   ar
    30    13    14   ar
    31    14    15   ar
    32    15    10   ar
    33    24    19   ar
    34    34    29    1
    35     4     8    1
    36     7     9    1
@<TRIPOS>MOLECULE
*****
 34 36 0 0 0
SMALL
GASTEIGER

@<TRIPOS>ATOM
      1 S         138.2616  139.7855  162.4436 S.O2    1  UNL1        0.0768
      2 O         138.5806  141.2510  162.4641 O.2     1  UNL1       -0.1498
      3 O         137.9426  138.3200  162.4231 O.2     1  UNL1       -0.1498
      4 N         138.8046  139.4303  158.5283 N.am    1  UNL1       -0.2671
      5 C         139.0514  139.3560  160.0060 C.2     1  UNL1        0.3231
      6 O         140.3351  138.7779  160.5238 O.2     1  UNL1       -0.2509
      7 N         138.0147  139.8598  160.9659 N.am    1  UNL1       -0.1690
      8 H         137.9621  139.8098  158.1885 H       1  UNL1        0.1565
      9 H         137.1722  140.2393  160.6260 H       1  UNL1        0.1781
     10 C         141.9147  137.9190  155.6487 C.ar    1  UNL1        0.0348
     11 C         140.7833  137.0273  156.0666 C.ar    1  UNL1        0.0041
     12 C         139.7465  137.5311  157.0265 C.ar    1  UNL1        0.0148
     13 C         139.8413  138.9265  157.5684 C.ar    1  UNL1        0.0516
     14 C         140.9727  139.8182  157.1505 C.ar    1  UNL1        0.0148
     15 C         142.0095  139.3144  156.1906 C.ar    1  UNL1        0.0041
     16 C         144.3580  137.1854  155.1565 C.3     1  UNL1        0.0773
     17 C         142.9515  137.4152  154.6888 C.2     1  UNL1        0.1735
     18 O         142.5816  137.1411  153.2612 O.2     1  UNL1       -0.2913
     19 C         138.5085  139.7111  163.9212 C.ar    1  UNL1        0.1255
     20 C         138.4496  138.3881  164.6258 C.ar    1  UNL1        0.0233
     21 C         138.6965  138.3137  166.1034 C.ar    1  UNL1        0.0383
     22 C         139.0023  139.5622  166.8766 C.ar    1  UNL1        0.1386
     23 C         139.0612  140.8851  166.1720 C.ar    1  UNL1        0.0383
     24 C         138.8143  140.9596  164.6943 C.ar    1  UNL1        0.0233
     25 O         139.2492  139.4878  168.3542 O.3     1  UNL1       -0.4754
     26 C         140.2841  140.3702  168.9871 C.3     1  UNL1        0.2068
     27 C         141.6524  139.8300  169.2804 C.3     1  UNL1        0.0646
     28 C         142.8050  140.1825  168.3876 C.3     1  UNL1        0.0759
     29 N         142.6492  140.1095  166.8975 N.3     1  UNL1       -0.2726
     30 C         142.4628  138.7807  166.2270 C.3     1  UNL1        0.0721
     31 C         142.3070  138.7078  164.7369 C.3     1  UNL1        0.0174
     32 C         142.3376  139.9637  163.9173 C.3     1  UNL1        0.0029
     33 C         142.5240  141.2925  164.5878 C.3     1  UNL1        0.0174
     34 C         142.6798  141.3654  166.0779 C.3     1  UNL1        0.0721
@<TRIPOS>BOND
     1    16    17    1
     2    17    18    2
     3    17    10    1
     4    10    11   ar
     5    11    12   ar
     6    12    13   ar
     7    13     4    1
     8     4     5   am
     9     5     6    2
    10     5     7   am
    11     7     1    1
    12     1     2    2
    13     1     3    2
    14     1    19    1
    15    19    20   ar
    16    20    21   ar
    17    21    22   ar
    18    22    25    1
    19    25    26    1
    20    26    27    1
    21    27    28    1
    22    28    29    1
    23    29    30    1
    24    30    31    1
    25    31    32    1
    26    32    33    1
    27    33    34    1
    28    22    23   ar
    29    23    24   ar
    30    13    14   ar
    31    14    15   ar
    32    15    10   ar
    33    24    19   ar
    34    34    29    1
    35     4     8    1
    36     7     9    1
