@<TRIPOS>MOLECULE
*****
 26 27 0 0 0
SMALL
GASTEIGER

@<TRIPOS>ATOM
      1 N         139.7803  140.0207  167.3430 N.3     1  UNL1       -0.2740
      2 C         138.4811  139.2789  167.2334 C.3     1  UNL1        0.0721
      3 C         138.1980  138.4367  166.0249 C.3     1  UNL1        0.0191
      4 C         139.2141  138.3361  164.9260 C.3     1  UNL1        0.0224
      5 C         140.5132  139.0779  165.0357 C.3     1  UNL1        0.0191
      6 C         140.7963  139.9201  166.2441 C.3     1  UNL1        0.0721
      7 C         139.6991  140.3613  169.9173 C.3     1  UNL1        0.0173
      8 C         140.0634  140.8629  168.5515 C.3     1  UNL1        0.0575
      9 C         140.7107  142.2068  168.3941 C.3     1  UNL1        0.0160
     10 C         141.6874  142.6940  169.4231 C.3     1  UNL1        0.0013
     11 C         140.6786  143.6930  169.9075 C.3     1  UNL1        0.0000
     12 C         142.6961  141.6951  168.9387 C.3     1  UNL1        0.0000
     13 C         142.6640  143.1812  170.4521 C.3     1  UNL1        0.0000
     14 C         138.9310  137.4938  163.7176 C.3     1  UNL1        0.0897
     15 N         138.9069  138.1210  162.3552 N.am    1  UNL1       -0.3009
     16 C         140.1227  138.0579  161.4789 C.2     1  UNL1        0.2459
     17 O         141.3626  137.3676  161.9650 O.2     1  UNL1       -0.2701
     18 H         138.0931  138.5740  162.0361 H       1  UNL1        0.1497
     19 C         140.0986  138.6850  160.1165 C.ar    1  UNL1        0.0550
     20 C         138.8794  139.4259  159.6533 C.ar    1  UNL1        0.0160
     21 C         138.8553  140.0531  158.2909 C.ar    1  UNL1        0.0587
     22 CL        137.6361  140.7939  157.8278 Cl      1  UNL1       -0.0822
     23 C         140.0505  139.9393  157.3917 C.ar    1  UNL1        0.0228
     24 C         141.2697  139.1984  157.8549 C.ar    1  UNL1        0.0587
     25 CL        142.4649  139.0846  156.9556 Cl      1  UNL1       -0.0822
     26 C         141.2938  138.5713  159.2172 C.ar    1  UNL1        0.0160
@<TRIPOS>BOND
     1     7     8    1
     2     8     9    1
     3     9    10    1
     4    10    11    1
     5    10    12    1
     6    10    13    1
     7     8     1    1
     8     1     2    1
     9     2     3    1
    10     3     4    1
    11     4    14    1
    12    14    15    1
    13    15    16   am
    14    16    17    2
    15    16    19    1
    16    19    20   ar
    17    20    21   ar
    18    21    22    1
    19    21    23   ar
    20    23    24   ar
    21    24    25    1
    22    24    26   ar
    23     4     5    1
    24     5     6    1
    25     6     1    1
    26    26    19   ar
    27    15    18    1
@<TRIPOS>MOLECULE
*****
 26 27 0 0 0
SMALL
GASTEIGER

@<TRIPOS>ATOM
      1 N         138.4428  140.2974  164.9258 N.3     1  UNL1       -0.2740
      2 C         137.6015  140.5488  163.7097 C.3     1  UNL1        0.0721
      3 C         137.6107  141.8995  163.0574 C.3     1  UNL1        0.0191
      4 C         138.4613  142.9988  163.6212 C.3     1  UNL1        0.0224
      5 C         139.3026  142.7474  164.8373 C.3     1  UNL1        0.0191
      6 C         139.2934  141.3967  165.4896 C.3     1  UNL1        0.0721
      7 C         137.9265  138.7951  166.9816 C.3     1  UNL1        0.0173
      8 C         138.4335  138.9467  165.5781 C.3     1  UNL1        0.0575
      9 C         138.9313  137.7476  164.8269 C.3     1  UNL1        0.0160
     10 C         140.1260  137.8685  163.9279 C.3     1  UNL1        0.0013
     11 C         139.2486  137.6455  162.7319 C.3     1  UNL1        0.0000
     12 C         141.0034  138.0915  165.1239 C.3     1  UNL1        0.0000
     13 C         141.3206  137.9895  163.0289 C.3     1  UNL1        0.0000
     14 C         138.4706  144.3495  162.9689 C.3     1  UNL1        0.0897
     15 N         138.9859  144.5026  161.5686 N.am    1  UNL1       -0.3009
     16 C         140.4615  144.4562  161.3031 C.2     1  UNL1        0.2459
     17 O         141.4218  144.2566  162.4380 O.2     1  UNL1       -0.2701
     18 H         138.3557  144.6337  160.8237 H       1  UNL1        0.1497
     19 C         140.9769  144.6093  159.9027 C.ar    1  UNL1        0.0550
     20 C         140.2990  145.5518  158.9530 C.ar    1  UNL1        0.0160
     21 C         140.8143  145.7049  157.5526 C.ar    1  UNL1        0.0587
     22 CL        140.1364  146.6475  156.6028 Cl      1  UNL1       -0.0822
     23 C         142.0075  144.9155  157.1020 C.ar    1  UNL1        0.0228
     24 C         142.6854  143.9729  158.0518 C.ar    1  UNL1        0.0587
     25 CL        143.8786  143.1834  157.6012 Cl      1  UNL1       -0.0822
     26 C         142.1701  143.8198  159.4521 C.ar    1  UNL1        0.0160
@<TRIPOS>BOND
     1     7     8    1
     2     8     9    1
     3     9    10    1
     4    10    11    1
     5    10    12    1
     6    10    13    1
     7     8     1    1
     8     1     2    1
     9     2     3    1
    10     3     4    1
    11     4    14    1
    12    14    15    1
    13    15    16   am
    14    16    17    2
    15    16    19    1
    16    19    20   ar
    17    20    21   ar
    18    21    22    1
    19    21    23   ar
    20    23    24   ar
    21    24    25    1
    22    24    26   ar
    23     4     5    1
    24     5     6    1
    25     6     1    1
    26    26    19   ar
    27    15    18    1
@<TRIPOS>MOLECULE
*****
 26 27 0 0 0
SMALL
GASTEIGER

@<TRIPOS>ATOM
      1 N         139.6716  140.1408  167.3208 N.3     1  UNL1       -0.2740
      2 C         140.5934  140.1759  166.1381 C.3     1  UNL1        0.0721
      3 C         140.2996  139.3325  164.9329 C.3     1  UNL1        0.0191
      4 C         139.0841  138.4539  164.9106 C.3     1  UNL1        0.0224
      5 C         138.1623  138.4188  166.0934 C.3     1  UNL1        0.0191
      6 C         138.4561  139.2622  167.2985 C.3     1  UNL1        0.0721
      7 C         139.6081  140.4863  169.8950 C.3     1  UNL1        0.0173
      8 C         139.9653  140.9842  168.5260 C.3     1  UNL1        0.0575
      9 C         140.6163  142.3256  168.3620 C.3     1  UNL1        0.0160
     10 C         141.6360  142.7912  169.3587 C.3     1  UNL1        0.0013
     11 C         140.6221  143.7165  169.9637 C.3     1  UNL1        0.0000
     12 C         142.6498  141.8660  168.7538 C.3     1  UNL1        0.0000
     13 C         142.6557  143.2569  170.3554 C.3     1  UNL1        0.0000
     14 C         138.7904  137.6105  163.7055 C.3     1  UNL1        0.0897
     15 N         138.8130  138.2241  162.3370 N.am    1  UNL1       -0.3009
     16 C         140.0138  138.0475  161.4556 C.2     1  UNL1        0.2459
     17 O         141.1920  137.2572  161.9427 O.2     1  UNL1       -0.2701
     18 H         138.0397  138.7428  162.0172 H       1  UNL1        0.1497
     19 C         140.0365  138.6612  160.0870 C.ar    1  UNL1        0.0550
     20 C         141.2228  138.4558  159.1924 C.ar    1  UNL1        0.0160
     21 C         141.2454  139.0695  157.8239 C.ar    1  UNL1        0.0587
     22 CL        142.4318  138.8640  156.9293 Cl      1  UNL1       -0.0822
     23 C         140.0816  139.8886  157.3499 C.ar    1  UNL1        0.0228
     24 C         138.8952  140.0940  158.2446 C.ar    1  UNL1        0.0587
     25 CL        137.7314  140.9131  157.7706 Cl      1  UNL1       -0.0822
     26 C         138.8727  139.4803  159.6131 C.ar    1  UNL1        0.0160
@<TRIPOS>BOND
     1     7     8    1
     2     8     9    1
     3     9    10    1
     4    10    11    1
     5    10    12    1
     6    10    13    1
     7     8     1    1
     8     1     2    1
     9     2     3    1
    10     3     4    1
    11     4    14    1
    12    14    15    1
    13    15    16   am
    14    16    17    2
    15    16    19    1
    16    19    20   ar
    17    20    21   ar
    18    21    22    1
    19    21    23   ar
    20    23    24   ar
    21    24    25    1
    22    24    26   ar
    23     4     5    1
    24     5     6    1
    25     6     1    1
    26    26    19   ar
    27    15    18    1
@<TRIPOS>MOLECULE
*****
 26 27 0 0 0
SMALL
GASTEIGER

@<TRIPOS>ATOM
      1 N         140.1575  141.9675  165.5196 N.3     1  UNL1       -0.2740
      2 C         139.2008  143.0322  165.0712 C.3     1  UNL1        0.0721
      3 C         139.6933  144.1834  164.2453 C.3     1  UNL1        0.0191
      4 C         141.1424  144.2700  163.8678 C.3     1  UNL1        0.0224
      5 C         142.0991  143.2053  164.3162 C.3     1  UNL1        0.0191
      6 C         141.6066  142.0541  165.1421 C.3     1  UNL1        0.0721
      7 C         140.4300  140.3840  167.5612 C.3     1  UNL1        0.0173
      8 C         139.6651  140.8162  166.3455 C.3     1  UNL1        0.0575
      9 C         138.4077  140.0972  165.9557 C.3     1  UNL1        0.0160
     10 C         138.4104  138.6037  165.8159 C.3     1  UNL1        0.0013
     11 C         137.5918  138.4852  167.0673 C.3     1  UNL1        0.0000
     12 C         139.2290  138.7223  164.5646 C.3     1  UNL1        0.0000
     13 C         138.4130  137.1103  165.6761 C.3     1  UNL1        0.0000
     14 C         141.6348  145.4213  163.0419 C.3     1  UNL1        0.0897
     15 N         141.9891  145.2121  161.5995 N.am    1  UNL1       -0.3009
     16 C         140.9285  145.3166  160.5439 C.2     1  UNL1        0.2459
     17 O         139.5136  145.6302  160.9308 O.2     1  UNL1       -0.2701
     18 H         142.9177  145.0063  161.3455 H       1  UNL1        0.1497
     19 C         141.2828  145.1074  159.1014 C.ar    1  UNL1        0.0550
     20 C         140.6415  145.9529  158.0413 C.ar    1  UNL1        0.0160
     21 C         140.9958  145.7438  156.5988 C.ar    1  UNL1        0.0587
     22 CL        140.3545  146.5893  155.5388 Cl      1  UNL1       -0.0822
     23 C         141.9916  144.6891  156.2165 C.ar    1  UNL1        0.0228
     24 C         142.6329  143.8436  157.2766 C.ar    1  UNL1        0.0587
     25 CL        143.6286  142.7889  156.8942 Cl      1  UNL1       -0.0822
     26 C         142.2785  144.0528  158.7190 C.ar    1  UNL1        0.0160
@<TRIPOS>BOND
     1     7     8    1
     2     8     9    1
     3     9    10    1
     4    10    11    1
     5    10    12    1
     6    10    13    1
     7     8     1    1
     8     1     2    1
     9     2     3    1
    10     3     4    1
    11     4    14    1
    12    14    15    1
    13    15    16   am
    14    16    17    2
    15    16    19    1
    16    19    20   ar
    17    20    21   ar
    18    21    22    1
    19    21    23   ar
    20    23    24   ar
    21    24    25    1
    22    24    26   ar
    23     4     5    1
    24     5     6    1
    25     6     1    1
    26    26    19   ar
    27    15    18    1
@<TRIPOS>MOLECULE
*****
 26 27 0 0 0
SMALL
GASTEIGER

@<TRIPOS>ATOM
      1 N         138.5916  140.3145  164.8470 N.3     1  UNL1       -0.2740
      2 C         139.6528  141.2537  165.3386 C.3     1  UNL1        0.0721
      3 C         139.7630  142.6317  164.7564 C.3     1  UNL1        0.0191
      4 C         138.8121  143.0705  163.6826 C.3     1  UNL1        0.0224
      5 C         137.7509  142.1312  163.1910 C.3     1  UNL1        0.0191
      6 C         137.6407  140.7532  163.7732 C.3     1  UNL1        0.0721
      7 C         137.9601  138.7508  166.8235 C.3     1  UNL1        0.0173
      8 C         138.4813  138.9365  165.4293 C.3     1  UNL1        0.0575
      9 C         138.8923  137.7441  164.6173 C.3     1  UNL1        0.0160
     10 C         140.0924  137.8246  163.7209 C.3     1  UNL1        0.0013
     11 C         140.9882  137.8601  164.9235 C.3     1  UNL1        0.0000
     12 C         139.1965  137.7892  162.5184 C.3     1  UNL1        0.0000
     13 C         141.2924  137.9052  162.8246 C.3     1  UNL1        0.0000
     14 C         138.9223  144.4485  163.1004 C.3     1  UNL1        0.0897
     15 N         139.2733  144.6252  161.6528 N.am    1  UNL1       -0.3009
     16 C         140.6828  144.4031  161.1903 C.2     1  UNL1        0.2459
     17 O         141.7414  144.0044  162.1753 O.2     1  UNL1       -0.2701
     18 H         138.5785  144.8869  161.0062 H       1  UNL1        0.1497
     19 C         141.0337  144.5798  159.7426 C.ar    1  UNL1        0.0550
     20 C         142.1444  143.7743  159.1364 C.ar    1  UNL1        0.0160
     21 C         142.4953  143.9510  157.6887 C.ar    1  UNL1        0.0587
     22 CL        143.6059  143.1455  157.0824 Cl      1  UNL1       -0.0822
     23 C         141.7356  144.9333  156.8473 C.ar    1  UNL1        0.0228
     24 C         140.6249  145.7388  157.4536 C.ar    1  UNL1        0.0587
     25 CL        139.8651  146.7211  156.6122 Cl      1  UNL1       -0.0822
     26 C         140.2740  145.5621  158.9012 C.ar    1  UNL1        0.0160
@<TRIPOS>BOND
     1     7     8    1
     2     8     9    1
     3     9    10    1
     4    10    11    1
     5    10    12    1
     6    10    13    1
     7     8     1    1
     8     1     2    1
     9     2     3    1
    10     3     4    1
    11     4    14    1
    12    14    15    1
    13    15    16   am
    14    16    17    2
    15    16    19    1
    16    19    20   ar
    17    20    21   ar
    18    21    22    1
    19    21    23   ar
    20    23    24   ar
    21    24    25    1
    22    24    26   ar
    23     4     5    1
    24     5     6    1
    25     6     1    1
    26    26    19   ar
    27    15    18    1
@<TRIPOS>MOLECULE
*****
 26 27 0 0 0
SMALL
GASTEIGER

@<TRIPOS>ATOM
      1 N         139.9699  141.7114  165.3135 N.3     1  UNL1       -0.2740
      2 C         139.2827  143.0441  165.3554 C.3     1  UNL1        0.0721
      3 C         139.8527  144.2060  164.5970 C.3     1  UNL1        0.0191
      4 C         141.1098  144.0353  163.7968 C.3     1  UNL1        0.0224
      5 C         141.7970  142.7027  163.7550 C.3     1  UNL1        0.0191
      6 C         141.2271  141.5407  164.5133 C.3     1  UNL1        0.0721
      7 C         139.9130  140.2249  167.4435 C.3     1  UNL1        0.0173
      8 C         139.4000  140.5495  166.0719 C.3     1  UNL1        0.0575
      9 C         138.3170  139.7122  165.4586 C.3     1  UNL1        0.0160
     10 C         138.5955  138.9179  164.2170 C.3     1  UNL1        0.0013
     11 C         139.1953  137.8248  165.0509 C.3     1  UNL1        0.0000
     12 C         137.9956  140.0110  163.3831 C.3     1  UNL1        0.0000
     13 C         138.8739  138.1235  162.9755 C.3     1  UNL1        0.0000
     14 C         141.6798  145.1972  163.0385 C.3     1  UNL1        0.0897
     15 N         142.0662  145.0359  161.5982 N.am    1  UNL1       -0.3009
     16 C         141.0221  145.1347  160.5258 C.2     1  UNL1        0.2459
     17 O         139.5914  145.3950  160.8938 O.2     1  UNL1       -0.2701
     18 H         143.0052  144.8650  161.3566 H       1  UNL1        0.1497
     19 C         141.4086  144.9733  159.0855 C.ar    1  UNL1        0.0550
     20 C         142.3795  143.9024  158.6849 C.ar    1  UNL1        0.0160
     21 C         142.7660  143.7410  157.2446 C.ar    1  UNL1        0.0587
     22 CL        143.7369  142.6700  156.8440 Cl      1  UNL1       -0.0822
     23 C         142.1817  144.6506  156.2048 C.ar    1  UNL1        0.0228
     24 C         141.2108  145.7216  156.6054 C.ar    1  UNL1        0.0587
     25 CL        140.6264  146.6312  155.5656 Cl      1  UNL1       -0.0822
     26 C         140.8243  145.8829  158.0457 C.ar    1  UNL1        0.0160
@<TRIPOS>BOND
     1     7     8    1
     2     8     9    1
     3     9    10    1
     4    10    11    1
     5    10    12    1
     6    10    13    1
     7     8     1    1
     8     1     2    1
     9     2     3    1
    10     3     4    1
    11     4    14    1
    12    14    15    1
    13    15    16   am
    14    16    17    2
    15    16    19    1
    16    19    20   ar
    17    20    21   ar
    18    21    22    1
    19    21    23   ar
    20    23    24   ar
    21    24    25    1
    22    24    26   ar
    23     4     5    1
    24     5     6    1
    25     6     1    1
    26    26    19   ar
    27    15    18    1
@<TRIPOS>MOLECULE
*****
 26 27 0 0 0
SMALL
GASTEIGER

@<TRIPOS>ATOM
      1 N         140.6831  142.1606  166.0671 N.3     1  UNL1       -0.2740
      2 C         142.0950  142.3168  165.5852 C.3     1  UNL1        0.0721
      3 C         142.4454  143.4243  164.6362 C.3     1  UNL1        0.0191
      4 C         141.3839  144.3756  164.1690 C.3     1  UNL1        0.0224
      5 C         139.9721  144.2194  164.6508 C.3     1  UNL1        0.0191
      6 C         139.6217  143.1119  165.5999 C.3     1  UNL1        0.0721
      7 C         140.0165  139.6852  166.4885 C.3     1  UNL1        0.0173
      8 C         140.3327  141.0531  167.0162 C.3     1  UNL1        0.0575
      9 C         140.2986  141.3137  168.4929 C.3     1  UNL1        0.0160
     10 C         141.4021  142.0950  169.1424 C.3     1  UNL1        0.0013
     11 C         142.3117  140.9081  169.0247 C.3     1  UNL1        0.0000
     12 C         140.4925  143.2819  169.2602 C.3     1  UNL1        0.0000
     13 C         142.5056  142.8763  169.7919 C.3     1  UNL1        0.0000
     14 C         141.7343  145.4831  163.2199 C.3     1  UNL1        0.0897
     15 N         142.0022  145.1769  161.7762 N.am    1  UNL1       -0.3009
     16 C         140.9024  145.3097  160.7648 C.2     1  UNL1        0.2459
     17 O         139.5348  145.7487  161.1971 O.2     1  UNL1       -0.2701
     18 H         142.8998  144.8888  161.4924 H       1  UNL1        0.1497
     19 C         141.1703  145.0035  159.3209 C.ar    1  UNL1        0.0550
     20 C         140.3706  145.6831  158.2492 C.ar    1  UNL1        0.0160
     21 C         140.6386  145.3769  156.8054 C.ar    1  UNL1        0.0587
     22 CL        139.8389  146.0565  155.7337 Cl      1  UNL1       -0.0822
     23 C         141.7062  144.3911  156.4334 C.ar    1  UNL1        0.0228
     24 C         142.5059  143.7115  157.5052 C.ar    1  UNL1        0.0587
     25 CL        143.5735  142.7258  157.1332 Cl      1  UNL1       -0.0822
     26 C         142.2380  144.0177  158.9489 C.ar    1  UNL1        0.0160
@<TRIPOS>BOND
     1     7     8    1
     2     8     9    1
     3     9    10    1
     4    10    11    1
     5    10    12    1
     6    10    13    1
     7     8     1    1
     8     1     2    1
     9     2     3    1
    10     3     4    1
    11     4    14    1
    12    14    15    1
    13    15    16   am
    14    16    17    2
    15    16    19    1
    16    19    20   ar
    17    20    21   ar
    18    21    22    1
    19    21    23   ar
    20    23    24   ar
    21    24    25    1
    22    24    26   ar
    23     4     5    1
    24     5     6    1
    25     6     1    1
    26    26    19   ar
    27    15    18    1
@<TRIPOS>MOLECULE
*****
 26 27 0 0 0
SMALL
GASTEIGER

@<TRIPOS>ATOM
      1 N         142.3819  141.5761  165.9470 N.3     1  UNL1       -0.2740
      2 C         143.5676  142.4157  165.5742 C.3     1  UNL1        0.0721
      3 C         143.3856  143.6297  164.7122 C.3     1  UNL1        0.0191
      4 C         142.0180  144.0041  164.2230 C.3     1  UNL1        0.0224
      5 C         140.8323  143.1644  164.5958 C.3     1  UNL1        0.0191
      6 C         141.0142  141.9504  165.4578 C.3     1  UNL1        0.0721
      7 C         142.7662  139.0169  166.1770 C.3     1  UNL1        0.0173
      8 C         142.5638  140.3621  166.8091 C.3     1  UNL1        0.0575
      9 C         142.5433  140.4933  168.3032 C.3     1  UNL1        0.0160
     10 C         141.5266  141.3756  168.9647 C.3     1  UNL1        0.0013
     11 C         142.5763  142.4256  169.1778 C.3     1  UNL1        0.0000
     12 C         140.4768  140.3255  168.7517 C.3     1  UNL1        0.0000
     13 C         140.5098  142.2579  169.6263 C.3     1  UNL1        0.0000
     14 C         141.8360  145.2181  163.3609 C.3     1  UNL1        0.0897
     15 N         142.0711  145.1299  161.8821 N.am    1  UNL1       -0.3009
     16 C         140.9061  145.1065  160.9375 C.2     1  UNL1        0.2459
     17 O         139.5060  145.1713  161.4718 O.2     1  UNL1       -0.2701
     18 H         142.9901  145.0874  161.5315 H       1  UNL1        0.1497
     19 C         141.1413  145.0184  159.4587 C.ar    1  UNL1        0.0550
     20 C         142.1703  144.0702  158.9181 C.ar    1  UNL1        0.0160
     21 C         142.4054  143.9821  157.4392 C.ar    1  UNL1        0.0587
     22 CL        143.4344  143.0340  156.8986 Cl      1  UNL1       -0.0822
     23 C         141.6116  144.8421  156.5010 C.ar    1  UNL1        0.0228
     24 C         140.5826  145.7903  157.0416 C.ar    1  UNL1        0.0587
     25 CL        139.7888  146.6503  156.1034 Cl      1  UNL1       -0.0822
     26 C         140.3475  145.8784  158.5204 C.ar    1  UNL1        0.0160
@<TRIPOS>BOND
     1     7     8    1
     2     8     9    1
     3     9    10    1
     4    10    11    1
     5    10    12    1
     6    10    13    1
     7     8     1    1
     8     1     2    1
     9     2     3    1
    10     3     4    1
    11     4    14    1
    12    14    15    1
    13    15    16   am
    14    16    17    2
    15    16    19    1
    16    19    20   ar
    17    20    21   ar
    18    21    22    1
    19    21    23   ar
    20    23    24   ar
    21    24    25    1
    22    24    26   ar
    23     4     5    1
    24     5     6    1
    25     6     1    1
    26    26    19   ar
    27    15    18    1
@<TRIPOS>MOLECULE
*****
 26 27 0 0 0
SMALL
GASTEIGER

@<TRIPOS>ATOM
      1 N         142.3855  142.1220  166.3809 N.3     1  UNL1       -0.2740
      2 C         141.1417  142.7557  165.8320 C.3     1  UNL1        0.0721
      3 C         141.2386  143.7584  164.7206 C.3     1  UNL1        0.0191
      4 C         142.5792  144.1273  164.1580 C.3     1  UNL1        0.0224
      5 C         143.8230  143.4935  164.7069 C.3     1  UNL1        0.0191
      6 C         143.7261  142.4909  165.8183 C.3     1  UNL1        0.0721
      7 C         142.8324  141.4504  168.8505 C.3     1  UNL1        0.0173
      8 C         142.2887  141.1193  167.4923 C.3     1  UNL1        0.0575
      9 C         141.6481  139.7857  167.2456 C.3     1  UNL1        0.0160
     10 C         141.9590  139.0249  165.9908 C.3     1  UNL1        0.0013
     11 C         143.3501  138.7696  166.4904 C.3     1  UNL1        0.0000
     12 C         140.5679  139.2803  165.4913 C.3     1  UNL1        0.0000
     13 C         142.2700  138.2642  164.7360 C.3     1  UNL1        0.0000
     14 C         142.6760  145.1299  163.0465 C.3     1  UNL1        0.0897
     15 N         142.2382  144.7582  161.6609 N.am    1  UNL1       -0.3009
     16 C         140.9101  145.2253  161.1433 C.2     1  UNL1        0.2459
     17 O         140.0197  146.0641  162.0114 O.2     1  UNL1       -0.2701
     18 H         142.8226  144.2077  161.0911 H       1  UNL1        0.1497
     19 C         140.4723  144.8535  159.7576 C.ar    1  UNL1        0.0550
     20 C         140.8442  145.7247  158.5945 C.ar    1  UNL1        0.0160
     21 C         140.4064  145.3529  157.2088 C.ar    1  UNL1        0.0587
     22 CL        140.7783  146.2241  156.0457 Cl      1  UNL1       -0.0822
     23 C         139.5967  144.1100  156.9862 C.ar    1  UNL1        0.0228
     24 C         139.2249  143.2388  158.1493 C.ar    1  UNL1        0.0587
     25 CL        138.4152  141.9958  157.9267 Cl      1  UNL1       -0.0822
     26 C         139.6627  143.6106  159.5350 C.ar    1  UNL1        0.0160
@<TRIPOS>BOND
     1     7     8    1
     2     8     9    1
     3     9    10    1
     4    10    11    1
     5    10    12    1
     6    10    13    1
     7     8     1    1
     8     1     2    1
     9     2     3    1
    10     3     4    1
    11     4    14    1
    12    14    15    1
    13    15    16   am
    14    16    17    2
    15    16    19    1
    16    19    20   ar
    17    20    21   ar
    18    21    22    1
    19    21    23   ar
    20    23    24   ar
    21    24    25    1
    22    24    26   ar
    23     4     5    1
    24     5     6    1
    25     6     1    1
    26    26    19   ar
    27    15    18    1
