@<TRIPOS>MOLECULE
*****
 34 37 0 0 0
SMALL
GASTEIGER

@<TRIPOS>ATOM
      1 N         142.6748  139.4705  166.8301 N.3     1  UNL1       -0.2698
      2 N         140.3309  142.4628  164.4214 N.pl3   1  UNL1       -0.2769
      3 C         139.8010  141.0724  164.6108 C.3     1  UNL1        0.0950
      4 C         140.5823  140.0750  165.4137 C.3     1  UNL1        0.0375
      5 C         141.8935  140.4680  166.0272 C.3     1  UNL1        0.0612
      6 C         142.4234  141.8584  165.8378 C.3     1  UNL1        0.0375
      7 C         141.6421  142.8558  165.0349 C.3     1  UNL1        0.0950
      8 N         139.0995  146.5744  161.3457 N.pl3   1  UNL1       -0.3278
      9 C         138.9836  145.3503  162.2048 C.ar    1  UNL1        0.2099
     10 N         140.1199  144.6209  162.8582 N.ar    1  UNL1       -0.1804
     11 C         139.5496  143.4604  163.6185 C.ar    1  UNL1        0.2395
     12 N         138.0609  143.4725  163.4350 N.ar    1  UNL1       -0.1349
     13 N         137.7111  144.6405  162.5612 N.ar    1  UNL1       -0.2453
     14 H         139.9837  146.9693  161.1682 H       1  UNL1        0.1451
     15 H         138.2914  146.9830  160.9595 H       1  UNL1        0.1451
     16 H         136.8054  144.8963  162.2724 H       1  UNL1        0.1919
     17 C         143.4623  138.3998  166.1348 C.3     1  UNL1        0.0770
     18 C         144.7359  138.7480  165.4229 C.3     1  UNL1        0.0437
     19 C         144.6988  139.6200  164.2030 C.ar    1  UNL1       -0.0207
     20 C         143.8591  139.2256  163.0243 C.ar    1  UNL1       -0.0034
     21 C         143.8221  140.0975  161.8044 C.ar    1  UNL1        0.0111
     22 C         144.6248  141.3641  161.7631 C.ar    1  UNL1        0.0577
     23 CL        144.5878  142.2361  160.5432 Cl      1  UNL1       -0.0822
     24 C         145.4645  141.7585  162.9418 C.ar    1  UNL1        0.0111
     25 C         145.5015  140.8865  164.1617 C.ar    1  UNL1       -0.0034
     26 C         142.6686  139.5437  168.3283 C.3     1  UNL1        0.1000
     27 C         141.7512  140.5018  169.0286 C.ar    1  UNL1        0.0046
     28 C         140.3160  140.1323  169.2605 C.ar    1  UNL1        0.0002
     29 C         139.3987  141.0904  169.9608 C.ar    1  UNL1        0.0294
     30 C         139.9164  142.4181  170.4291 C.ar    1  UNL1        0.1410
     31 F         138.9991  143.3762  171.1294 F       1  UNL1       -0.2041
     32 C         141.3515  142.7876  170.1972 C.ar    1  UNL1        0.0407
     33 C         142.2690  141.8295  169.4969 C.ar    1  UNL1        0.0572
     34 CL        143.7041  142.1990  169.2649 Cl      1  UNL1       -0.0825
@<TRIPOS>BOND
     1     8     9    1
     2     9    10   ar
     3    10    11   ar
     4    11     2    1
     5     2     3    1
     6     3     4    1
     7     4     5    1
     8     5     1    1
     9     1    17    1
    10    17    18    1
    11    18    19    1
    12    19    20   ar
    13    20    21   ar
    14    21    22   ar
    15    22    23    1
    16    22    24   ar
    17    24    25   ar
    18     1    26    1
    19    26    27    1
    20    27    28   ar
    21    28    29   ar
    22    29    30   ar
    23    30    31    1
    24    30    32   ar
    25    32    33   ar
    26    33    34    1
    27     5     6    1
    28     6     7    1
    29    11    12   ar
    30    12    13   ar
    31    13     9   ar
    32     7     2    1
    33    25    19   ar
    34    33    27   ar
    35     8    14    1
    36     8    15    1
    37    13    16    1
@<TRIPOS>MOLECULE
*****
 34 37 0 0 0
SMALL
GASTEIGER

@<TRIPOS>ATOM
      1 N         137.9457  140.2665  163.3228 N.3     1  UNL1       -0.2698
      2 N         139.9025  140.0379  167.3686 N.pl3   1  UNL1       -0.2769
      3 C         138.6814  139.2165  167.0786 C.3     1  UNL1        0.0950
      4 C         138.0292  139.2927  165.7300 C.3     1  UNL1        0.0375
      5 C         138.5980  140.1904  164.6714 C.3     1  UNL1        0.0612
      6 C         139.8191  141.0118  164.9614 C.3     1  UNL1        0.0375
      7 C         140.4713  140.9356  166.3100 C.3     1  UNL1        0.0950
      8 N         143.5546  139.7630  171.1722 N.pl3   1  UNL1       -0.3278
      9 C         142.2335  139.8354  170.4656 C.ar    1  UNL1        0.2099
     10 N         142.0302  139.9022  168.9809 N.ar    1  UNL1       -0.1804
     11 C         140.5548  139.9618  168.7173 C.ar    1  UNL1        0.2395
     12 N         139.8461  139.9318  170.0390 N.ar    1  UNL1       -0.1349
     13 N         140.8836  139.8537  171.1195 N.ar    1  UNL1       -0.2453
     14 H         144.3909  139.7563  170.6529 H       1  UNL1        0.1451
     15 H         143.5854  139.7222  172.1554 H       1  UNL1        0.1451
     16 H         140.7092  139.8203  172.0879 H       1  UNL1        0.1919
     17 C         137.9326  139.0635  162.4270 C.3     1  UNL1        0.0770
     18 C         139.1251  138.7518  161.5721 C.3     1  UNL1        0.0437
     19 C         140.5086  138.8971  162.1331 C.ar    1  UNL1       -0.0207
     20 C         141.3817  140.0339  161.6910 C.ar    1  UNL1       -0.0034
     21 C         142.7652  140.1791  162.2520 C.ar    1  UNL1        0.0111
     22 C         143.2757  139.1875  163.2552 C.ar    1  UNL1        0.0577
     23 CL        144.6592  139.3328  163.8162 Cl      1  UNL1       -0.0822
     24 C         142.4026  138.0507  163.6973 C.ar    1  UNL1        0.0111
     25 C         141.0190  137.9055  163.1362 C.ar    1  UNL1       -0.0034
     26 C         137.3066  141.5458  162.8700 C.3     1  UNL1        0.1000
     27 C         138.1537  142.6511  162.3126 C.ar    1  UNL1        0.0046
     28 C         138.7794  142.5058  160.9570 C.ar    1  UNL1        0.0002
     29 C         139.6265  143.6111  160.3997 C.ar    1  UNL1        0.0294
     30 C         139.8479  144.8617  161.1977 C.ar    1  UNL1        0.1410
     31 F         140.6949  145.9670  160.6403 F       1  UNL1       -0.2041
     32 C         139.2222  145.0071  162.5532 C.ar    1  UNL1        0.0407
     33 C         138.3751  143.9017  163.1107 C.ar    1  UNL1        0.0572
     34 CL        137.7494  144.0470  164.4661 Cl      1  UNL1       -0.0825
@<TRIPOS>BOND
     1     8     9    1
     2     9    10   ar
     3    10    11   ar
     4    11     2    1
     5     2     3    1
     6     3     4    1
     7     4     5    1
     8     5     1    1
     9     1    17    1
    10    17    18    1
    11    18    19    1
    12    19    20   ar
    13    20    21   ar
    14    21    22   ar
    15    22    23    1
    16    22    24   ar
    17    24    25   ar
    18     1    26    1
    19    26    27    1
    20    27    28   ar
    21    28    29   ar
    22    29    30   ar
    23    30    31    1
    24    30    32   ar
    25    32    33   ar
    26    33    34    1
    27     5     6    1
    28     6     7    1
    29    11    12   ar
    30    12    13   ar
    31    13     9   ar
    32     7     2    1
    33    25    19   ar
    34    33    27   ar
    35     8    14    1
    36     8    15    1
    37    13    16    1
@<TRIPOS>MOLECULE
*****
 34 37 0 0 0
SMALL
GASTEIGER

@<TRIPOS>ATOM
      1 N         138.2849  139.6874  163.3725 N.3     1  UNL1       -0.2698
      2 N         139.6723  140.3605  167.6001 N.pl3   1  UNL1       -0.2769
      3 C         140.2851  141.1424  166.4762 C.3     1  UNL1        0.0950
      4 C         139.8226  140.9180  165.0670 C.3     1  UNL1        0.0375
      5 C         138.7474  139.9118  164.7818 C.3     1  UNL1        0.0612
      6 C         138.1346  139.1299  165.9057 C.3     1  UNL1        0.0375
      7 C         138.5971  139.3543  167.3148 C.3     1  UNL1        0.0950
      8 N         142.2062  142.3064  171.8042 N.pl3   1  UNL1       -0.3278
      9 C         141.2995  141.4793  170.9417 C.ar    1  UNL1        0.2099
     10 N         141.1396  141.6053  169.4556 N.ar    1  UNL1       -0.1804
     11 C         140.1348  140.5849  169.0093 C.ar    1  UNL1        0.2395
     12 N         139.6737  139.8282  170.2196 N.ar    1  UNL1       -0.1349
     13 N         140.3935  140.3810  171.4139 N.ar    1  UNL1       -0.2453
     14 H         142.7658  143.0079  171.3993 H       1  UNL1        0.1451
     15 H         142.2416  142.1477  172.7752 H       1  UNL1        0.1451
     16 H         140.2895  140.0764  172.3443 H       1  UNL1        0.1919
     17 C         138.5843  138.3896  162.6826 C.3     1  UNL1        0.0770
     18 C         139.6520  137.4833  163.2200 C.3     1  UNL1        0.0437
     19 C         141.0231  138.0232  163.4999 C.ar    1  UNL1       -0.0207
     20 C         141.6474  137.8222  164.8489 C.ar    1  UNL1       -0.0034
     21 C         143.0185  138.3621  165.1288 C.ar    1  UNL1        0.0111
     22 C         143.7655  139.1031  164.0596 C.ar    1  UNL1        0.0577
     23 CL        145.1367  139.6430  164.3395 Cl      1  UNL1       -0.0822
     24 C         143.1413  139.3041  162.7106 C.ar    1  UNL1        0.0111
     25 C         141.7700  138.7641  162.4307 C.ar    1  UNL1       -0.0034
     26 C         137.5231  140.7609  162.6533 C.3     1  UNL1        0.1000
     27 C         138.1160  142.1308  162.5057 C.ar    1  UNL1        0.0046
     28 C         137.6069  143.2631  163.3476 C.ar    1  UNL1        0.0002
     29 C         138.1998  144.6330  163.2000 C.ar    1  UNL1        0.0294
     30 C         139.3019  144.8706  162.2105 C.ar    1  UNL1        0.1410
     31 F         139.8948  146.2405  162.0629 F       1  UNL1       -0.2041
     32 C         139.8110  143.7384  161.3687 C.ar    1  UNL1        0.0407
     33 C         139.2181  142.3684  161.5163 C.ar    1  UNL1        0.0572
     34 CL        139.7272  141.2361  160.6745 Cl      1  UNL1       -0.0825
@<TRIPOS>BOND
     1     8     9    1
     2     9    10   ar
     3    10    11   ar
     4    11     2    1
     5     2     3    1
     6     3     4    1
     7     4     5    1
     8     5     1    1
     9     1    17    1
    10    17    18    1
    11    18    19    1
    12    19    20   ar
    13    20    21   ar
    14    21    22   ar
    15    22    23    1
    16    22    24   ar
    17    24    25   ar
    18     1    26    1
    19    26    27    1
    20    27    28   ar
    21    28    29   ar
    22    29    30   ar
    23    30    31    1
    24    30    32   ar
    25    32    33   ar
    26    33    34    1
    27     5     6    1
    28     6     7    1
    29    11    12   ar
    30    12    13   ar
    31    13     9   ar
    32     7     2    1
    33    25    19   ar
    34    33    27   ar
    35     8    14    1
    36     8    15    1
    37    13    16    1
@<TRIPOS>MOLECULE
*****
 34 37 0 0 0
SMALL
GASTEIGER

@<TRIPOS>ATOM
      1 N         139.2582  139.9121  167.3575 N.3     1  UNL1       -0.2698
      2 N         142.0487  141.9655  164.4858 N.pl3   1  UNL1       -0.2769
      3 C         140.6501  142.4761  164.6670 C.3     1  UNL1        0.0950
      4 C         139.7199  141.7917  165.6242 C.3     1  UNL1        0.0375
      5 C         140.1885  140.5966  166.4002 C.3     1  UNL1        0.0612
      6 C         141.5871  140.0859  166.2190 C.3     1  UNL1        0.0375
      7 C         142.5173  140.7704  165.2618 C.3     1  UNL1        0.0950
      8 N         145.3970  142.8443  160.4985 N.pl3   1  UNL1       -0.3278
      9 C         144.5180  143.0539  161.6958 C.ar    1  UNL1        0.2099
     10 N         143.6998  142.0017  162.3839 N.ar    1  UNL1       -0.1804
     11 C         142.9790  142.6500  163.5285 C.ar    1  UNL1        0.2395
     12 N         143.3516  144.1028  163.5479 N.ar    1  UNL1       -0.1349
     13 N         144.3028  144.3524  162.4152 N.ar    1  UNL1       -0.2453
     14 H         145.4736  141.9497  160.0946 H       1  UNL1        0.1451
     15 H         145.8973  143.6013  160.1166 H       1  UNL1        0.1451
     16 H         144.7137  145.2168  162.1844 H       1  UNL1        0.1919
     17 C         138.1049  139.1070  166.8363 C.3     1  UNL1        0.0770
     18 C         138.3585  137.8503  166.0575 C.3     1  UNL1        0.0437
     19 C         139.1231  137.9083  164.7683 C.ar    1  UNL1       -0.0207
     20 C         140.4130  137.1560  164.6268 C.ar    1  UNL1       -0.0034
     21 C         141.1775  137.2140  163.3376 C.ar    1  UNL1        0.0111
     22 C         140.6521  138.0244  162.1898 C.ar    1  UNL1        0.0577
     23 CL        141.4167  138.0824  160.9006 Cl      1  UNL1       -0.0822
     24 C         139.3622  138.7767  162.3314 C.ar    1  UNL1        0.0111
     25 C         138.5976  138.7187  163.6206 C.ar    1  UNL1       -0.0034
     26 C         139.4814  140.0327  168.8358 C.3     1  UNL1        0.1000
     27 C         140.4895  141.0093  169.3649 C.ar    1  UNL1        0.0046
     28 C         140.1505  142.4684  169.4440 C.ar    1  UNL1        0.0002
     29 C         141.1586  143.4450  169.9731 C.ar    1  UNL1        0.0294
     30 C         142.5057  142.9626  170.4231 C.ar    1  UNL1        0.1410
     31 F         143.5138  143.9392  170.9522 F       1  UNL1       -0.2041
     32 C         142.8448  141.5036  170.3440 C.ar    1  UNL1        0.0407
     33 C         141.8367  140.5269  169.8149 C.ar    1  UNL1        0.0572
     34 CL        142.1757  139.0679  169.7359 Cl      1  UNL1       -0.0825
@<TRIPOS>BOND
     1     8     9    1
     2     9    10   ar
     3    10    11   ar
     4    11     2    1
     5     2     3    1
     6     3     4    1
     7     4     5    1
     8     5     1    1
     9     1    17    1
    10    17    18    1
    11    18    19    1
    12    19    20   ar
    13    20    21   ar
    14    21    22   ar
    15    22    23    1
    16    22    24   ar
    17    24    25   ar
    18     1    26    1
    19    26    27    1
    20    27    28   ar
    21    28    29   ar
    22    29    30   ar
    23    30    31    1
    24    30    32   ar
    25    32    33   ar
    26    33    34    1
    27     5     6    1
    28     6     7    1
    29    11    12   ar
    30    12    13   ar
    31    13     9   ar
    32     7     2    1
    33    25    19   ar
    34    33    27   ar
    35     8    14    1
    36     8    15    1
    37    13    16    1
@<TRIPOS>MOLECULE
*****
 34 37 0 0 0
SMALL
GASTEIGER

@<TRIPOS>ATOM
      1 N         138.9471  139.2781  165.5890 N.3     1  UNL1       -0.2698
      2 N         137.0320  138.4773  169.5816 N.pl3   1  UNL1       -0.2769
      3 C         138.1282  139.4946  169.4662 C.3     1  UNL1        0.0950
      4 C         138.7666  139.7615  168.1353 C.3     1  UNL1        0.0375
      5 C         138.3087  139.0111  166.9199 C.3     1  UNL1        0.0612
      6 C         137.2125  137.9938  167.0354 C.3     1  UNL1        0.0375
      7 C         136.5742  137.7269  168.3662 C.3     1  UNL1        0.0950
      8 N         135.4461  136.0484  173.9937 N.pl3   1  UNL1       -0.3278
      9 C         135.6647  137.0939  172.9405 C.ar    1  UNL1        0.2099
     10 N         136.4284  136.9117  171.6625 N.ar    1  UNL1       -0.1804
     11 C         136.3936  138.2104  170.9126 C.ar    1  UNL1        0.2395
     12 N         135.6084  139.1951  171.7272 N.ar    1  UNL1       -0.1349
     13 N         135.1579  138.5051  172.9806 N.ar    1  UNL1       -0.2453
     14 H         135.8206  135.1455  173.8763 H       1  UNL1        0.1451
     15 H         134.9280  136.2650  174.8024 H       1  UNL1        0.1451
     16 H         134.6235  138.9078  173.7027 H       1  UNL1        0.1919
     17 C         138.5927  140.5176  164.8223 C.3     1  UNL1        0.0770
     18 C         139.0143  141.8628  165.3349 C.3     1  UNL1        0.0437
     19 C         140.4644  142.2464  165.3304 C.ar    1  UNL1       -0.0207
     20 C         141.0782  142.8441  164.0992 C.ar    1  UNL1       -0.0034
     21 C         142.5283  143.2277  164.0946 C.ar    1  UNL1        0.0111
     22 C         143.3646  143.0135  165.3214 C.ar    1  UNL1        0.0577
     23 CL        144.8147  143.3971  165.3168 Cl      1  UNL1       -0.0822
     24 C         142.7508  142.4158  166.5526 C.ar    1  UNL1        0.0111
     25 C         141.3006  142.0323  166.5571 C.ar    1  UNL1       -0.0034
     26 C         139.9399  138.3054  165.0248 C.3     1  UNL1        0.1000
     27 C         141.3631  138.7269  164.8086 C.ar    1  UNL1        0.0046
     28 C         142.3573  138.6126  165.9260 C.ar    1  UNL1        0.0002
     29 C         143.7805  139.0342  165.7097 C.ar    1  UNL1        0.0294
     30 C         144.2096  139.5700  164.3760 C.ar    1  UNL1        0.1410
     31 F         145.6327  139.9915  164.1597 F       1  UNL1       -0.2041
     32 C         143.2155  139.6843  163.2586 C.ar    1  UNL1        0.0407
     33 C         141.7922  139.2628  163.4749 C.ar    1  UNL1        0.0572
     34 CL        140.7981  139.3771  162.3574 Cl      1  UNL1       -0.0825
@<TRIPOS>BOND
     1     8     9    1
     2     9    10   ar
     3    10    11   ar
     4    11     2    1
     5     2     3    1
     6     3     4    1
     7     4     5    1
     8     5     1    1
     9     1    17    1
    10    17    18    1
    11    18    19    1
    12    19    20   ar
    13    20    21   ar
    14    21    22   ar
    15    22    23    1
    16    22    24   ar
    17    24    25   ar
    18     1    26    1
    19    26    27    1
    20    27    28   ar
    21    28    29   ar
    22    29    30   ar
    23    30    31    1
    24    30    32   ar
    25    32    33   ar
    26    33    34    1
    27     5     6    1
    28     6     7    1
    29    11    12   ar
    30    12    13   ar
    31    13     9   ar
    32     7     2    1
    33    25    19   ar
    34    33    27   ar
    35     8    14    1
    36     8    15    1
    37    13    16    1
@<TRIPOS>MOLECULE
*****
 34 37 0 0 0
SMALL
GASTEIGER

@<TRIPOS>ATOM
      1 N         139.6507  143.3351  164.3985 N.3     1  UNL1       -0.2698
      2 N         140.7022  144.9340  160.3257 N.pl3   1  UNL1       -0.2769
      3 C         141.0140  143.5091  160.6755 C.3     1  UNL1        0.0950
      4 C         140.6635  142.9761  162.0330 C.3     1  UNL1        0.0375
      5 C         140.0012  143.8681  163.0409 C.3     1  UNL1        0.0612
      6 C         139.6895  145.2930  162.6912 C.3     1  UNL1        0.0375
      7 C         140.0400  145.8260  161.3336 C.3     1  UNL1        0.0950
      8 N         140.3112  147.1089  155.5301 N.pl3   1  UNL1       -0.3278
      9 C         140.8730  146.4667  156.7638 C.ar    1  UNL1        0.2099
     10 N         140.0953  146.0707  157.9838 N.ar    1  UNL1       -0.1804
     11 C         141.0528  145.4670  158.9681 C.ar    1  UNL1        0.2395
     12 N         142.4222  145.4899  158.3565 N.ar    1  UNL1       -0.1349
     13 N         142.3111  146.1077  156.9941 N.ar    1  UNL1       -0.2453
     14 H         139.3485  147.3066  155.4729 H       1  UNL1        0.1451
     15 H         140.9053  147.3326  154.7776 H       1  UNL1        0.1451
     16 H         143.0520  146.2523  156.3621 H       1  UNL1        0.1919
     17 C         138.2564  142.8593  164.6804 C.3     1  UNL1        0.0770
     18 C         137.7495  141.6010  164.0402 C.3     1  UNL1        0.0437
     19 C         138.5468  140.3345  164.1407 C.ar    1  UNL1       -0.0207
     20 C         139.4030  139.8939  162.9905 C.ar    1  UNL1       -0.0034
     21 C         140.2004  138.6274  163.0911 C.ar    1  UNL1        0.0111
     22 C         140.1416  137.8014  164.3418 C.ar    1  UNL1        0.0577
     23 CL        140.9389  136.5349  164.4423 Cl      1  UNL1       -0.0822
     24 C         139.2854  138.2419  165.4920 C.ar    1  UNL1        0.0111
     25 C         138.4880  139.5085  165.3914 C.ar    1  UNL1       -0.0034
     26 C         140.6946  143.2779  165.4742 C.3     1  UNL1        0.1000
     27 C         141.3923  141.9844  165.7742 C.ar    1  UNL1        0.0046
     28 C         142.3186  141.3794  164.7613 C.ar    1  UNL1        0.0002
     29 C         143.0163  140.0859  165.0613 C.ar    1  UNL1        0.0294
     30 C         142.7879  139.3975  166.3742 C.ar    1  UNL1        0.1410
     31 F         143.4857  138.1040  166.6742 F       1  UNL1       -0.2041
     32 C         141.8617  140.0024  167.3871 C.ar    1  UNL1        0.0407
     33 C         141.1639  141.2960  167.0872 C.ar    1  UNL1        0.0572
     34 CL        140.2377  141.9009  168.1001 Cl      1  UNL1       -0.0825
@<TRIPOS>BOND
     1     8     9    1
     2     9    10   ar
     3    10    11   ar
     4    11     2    1
     5     2     3    1
     6     3     4    1
     7     4     5    1
     8     5     1    1
     9     1    17    1
    10    17    18    1
    11    18    19    1
    12    19    20   ar
    13    20    21   ar
    14    21    22   ar
    15    22    23    1
    16    22    24   ar
    17    24    25   ar
    18     1    26    1
    19    26    27    1
    20    27    28   ar
    21    28    29   ar
    22    29    30   ar
    23    30    31    1
    24    30    32   ar
    25    32    33   ar
    26    33    34    1
    27     5     6    1
    28     6     7    1
    29    11    12   ar
    30    12    13   ar
    31    13     9   ar
    32     7     2    1
    33    25    19   ar
    34    33    27   ar
    35     8    14    1
    36     8    15    1
    37    13    16    1
@<TRIPOS>MOLECULE
*****
 34 37 0 0 0
SMALL
GASTEIGER

@<TRIPOS>ATOM
      1 N         138.1612  139.9342  163.5411 N.3     1  UNL1       -0.2698
      2 N         139.6304  140.4767  167.7598 N.pl3   1  UNL1       -0.2769
      3 C         140.1135  141.3918  166.6739 C.3     1  UNL1        0.0950
      4 C         139.6237  141.2110  165.2677 C.3     1  UNL1        0.0375
      5 C         138.6509  140.1150  164.9474 C.3     1  UNL1        0.0612
      6 C         138.1679  139.1999  166.0333 C.3     1  UNL1        0.0375
      7 C         138.6577  139.3808  167.4395 C.3     1  UNL1        0.0950
      8 N         142.1683  142.3582  171.9907 N.pl3   1  UNL1       -0.3278
      9 C         141.2867  141.5224  171.1107 C.ar    1  UNL1        0.2099
     10 N         141.0761  141.7129  169.6379 N.ar    1  UNL1       -0.1804
     11 C         140.1202  140.6576  169.1660 C.ar    1  UNL1        0.2395
     12 N         139.7401  139.8148  170.3473 N.ar    1  UNL1       -0.1349
     13 N         140.4610  140.3493  171.5492 N.ar    1  UNL1       -0.2453
     14 H         142.6736  143.1115  171.6080 H       1  UNL1        0.1451
     15 H         142.2415  142.1535  172.9509 H       1  UNL1        0.1451
     16 H         140.4025  139.9928  172.4650 H       1  UNL1        0.1919
     17 C         137.3297  141.0015  162.8935 C.3     1  UNL1        0.0770
     18 C         137.9353  141.8957  161.8524 C.3     1  UNL1        0.0437
     19 C         139.1775  142.6762  162.1648 C.ar    1  UNL1       -0.0207
     20 C         139.0742  144.0124  162.8384 C.ar    1  UNL1       -0.0034
     21 C         140.3164  144.7929  163.1509 C.ar    1  UNL1        0.0111
     22 C         141.6621  144.2372  162.7897 C.ar    1  UNL1        0.0577
     23 CL        142.9043  145.0177  163.1021 Cl      1  UNL1       -0.0822
     24 C         141.7654  142.9010  162.1161 C.ar    1  UNL1        0.0111
     25 C         140.5231  142.1204  161.8036 C.ar    1  UNL1       -0.0034
     26 C         138.5029  138.6861  162.7826 C.3     1  UNL1        0.1000
     27 C         139.9068  138.4588  162.3059 C.ar    1  UNL1        0.0046
     28 C         140.9914  138.1398  163.2919 C.ar    1  UNL1        0.0002
     29 C         142.3953  137.9126  162.8152 C.ar    1  UNL1        0.0294
     30 C         142.7148  138.0044  161.3525 C.ar    1  UNL1        0.1410
     31 F         144.1187  137.7772  160.8758 F       1  UNL1       -0.2041
     32 C         141.6304  138.3234  160.3665 C.ar    1  UNL1        0.0407
     33 C         140.2263  138.5506  160.8432 C.ar    1  UNL1        0.0572
     34 CL        139.1419  138.8697  159.8572 Cl      1  UNL1       -0.0825
@<TRIPOS>BOND
     1     8     9    1
     2     9    10   ar
     3    10    11   ar
     4    11     2    1
     5     2     3    1
     6     3     4    1
     7     4     5    1
     8     5     1    1
     9     1    17    1
    10    17    18    1
    11    18    19    1
    12    19    20   ar
    13    20    21   ar
    14    21    22   ar
    15    22    23    1
    16    22    24   ar
    17    24    25   ar
    18     1    26    1
    19    26    27    1
    20    27    28   ar
    21    28    29   ar
    22    29    30   ar
    23    30    31    1
    24    30    32   ar
    25    32    33   ar
    26    33    34    1
    27     5     6    1
    28     6     7    1
    29    11    12   ar
    30    12    13   ar
    31    13     9   ar
    32     7     2    1
    33    25    19   ar
    34    33    27   ar
    35     8    14    1
    36     8    15    1
    37    13    16    1
@<TRIPOS>MOLECULE
*****
 34 37 0 0 0
SMALL
GASTEIGER

@<TRIPOS>ATOM
      1 N         143.6157  139.2205  163.2283 N.3     1  UNL1       -0.2698
      2 N         142.6797  140.1941  167.5209 N.pl3   1  UNL1       -0.2769
      3 C         142.5906  141.2633  166.4727 C.3     1  UNL1        0.0950
      4 C         142.9026  140.9388  165.0419 C.3     1  UNL1        0.0375
      5 C         143.3037  139.5450  164.6593 C.3     1  UNL1        0.0612
      6 C         143.3928  138.4757  165.7074 C.3     1  UNL1        0.0375
      7 C         143.0808  138.8003  167.1382 C.3     1  UNL1        0.0950
      8 N         140.4004  142.2307  171.8265 N.pl3   1  UNL1       -0.3278
      9 C         141.3200  141.4548  170.9308 C.ar    1  UNL1        0.2099
     10 N         141.2660  141.4160  169.4323 N.ar    1  UNL1       -0.1804
     11 C         142.3677  140.5186  168.9518 C.ar    1  UNL1        0.2395
     12 N         143.1025  140.0026  170.1533 N.ar    1  UNL1       -0.1349
     13 N         142.4551  140.5812  171.3764 N.ar    1  UNL1       -0.2453
     14 H         139.6809  142.7787  171.4374 H       1  UNL1        0.1451
     15 H         140.5163  142.1921  172.8033 H       1  UNL1        0.1451
     16 H         142.7273  140.4165  172.3081 H       1  UNL1        0.1919
     17 C         144.5910  140.0650  162.4632 C.3     1  UNL1        0.0770
     18 C         144.1032  140.9729  161.3732 C.3     1  UNL1        0.0437
     19 C         143.1881  142.1150  161.7019 C.ar    1  UNL1       -0.0207
     20 C         143.7586  143.4292  162.1464 C.ar    1  UNL1       -0.0034
     21 C         142.8435  144.5713  162.4750 C.ar    1  UNL1        0.0111
     22 C         141.3578  144.3993  162.3591 C.ar    1  UNL1        0.0577
     23 CL        140.4427  145.5415  162.6878 Cl      1  UNL1       -0.0822
     24 C         140.7874  143.0852  161.9146 C.ar    1  UNL1        0.0111
     25 C         141.7026  141.9430  161.5860 C.ar    1  UNL1       -0.0034
     26 C         142.9523  138.0513  162.5626 C.3     1  UNL1        0.1000
     27 C         141.4729  138.0688  162.3162 C.ar    1  UNL1        0.0046
     28 C         140.5222  137.7684  163.4370 C.ar    1  UNL1        0.0002
     29 C         139.0427  137.7859  163.1906 C.ar    1  UNL1        0.0294
     30 C         138.5138  138.1038  161.8234 C.ar    1  UNL1        0.1410
     31 F         137.0343  138.1213  161.5770 F       1  UNL1       -0.2041
     32 C         139.4644  138.4042  160.7026 C.ar    1  UNL1        0.0407
     33 C         140.9439  138.3867  160.9490 C.ar    1  UNL1        0.0572
     34 CL        141.8945  138.6871  159.8283 Cl      1  UNL1       -0.0825
@<TRIPOS>BOND
     1     8     9    1
     2     9    10   ar
     3    10    11   ar
     4    11     2    1
     5     2     3    1
     6     3     4    1
     7     4     5    1
     8     5     1    1
     9     1    17    1
    10    17    18    1
    11    18    19    1
    12    19    20   ar
    13    20    21   ar
    14    21    22   ar
    15    22    23    1
    16    22    24   ar
    17    24    25   ar
    18     1    26    1
    19    26    27    1
    20    27    28   ar
    21    28    29   ar
    22    29    30   ar
    23    30    31    1
    24    30    32   ar
    25    32    33   ar
    26    33    34    1
    27     5     6    1
    28     6     7    1
    29    11    12   ar
    30    12    13   ar
    31    13     9   ar
    32     7     2    1
    33    25    19   ar
    34    33    27   ar
    35     8    14    1
    36     8    15    1
    37    13    16    1
@<TRIPOS>MOLECULE
*****
 34 37 0 0 0
SMALL
GASTEIGER

@<TRIPOS>ATOM
      1 N         144.1625  142.9593  164.8191 N.3     1  UNL1       -0.2698
      2 N         141.5519  141.2096  168.0398 N.pl3   1  UNL1       -0.2769
      3 C         141.1965  141.0112  166.5961 C.3     1  UNL1        0.0950
      4 C         142.0667  141.5944  165.5226 C.3     1  UNL1        0.0375
      5 C         143.2923  142.3760  165.8928 C.3     1  UNL1        0.0612
      6 C         143.6477  142.5744  167.3364 C.3     1  UNL1        0.0375
      7 C         142.7775  141.9912  168.4100 C.3     1  UNL1        0.0950
      8 N         137.3329  139.4328  170.6713 N.pl3   1  UNL1       -0.3278
      9 C         138.7424  139.8096  170.3230 C.ar    1  UNL1        0.2099
     10 N         139.1992  140.4142  169.0285 N.ar    1  UNL1       -0.1804
     11 C         140.6817  140.6263  169.1135 C.ar    1  UNL1        0.2395
     12 N         141.1412  140.1528  170.4606 N.ar    1  UNL1       -0.1349
     13 N         139.9427  139.6481  171.2081 N.ar    1  UNL1       -0.2453
     14 H         136.6092  139.5782  170.0199 H       1  UNL1        0.1451
     15 H         137.1316  139.0400  171.5513 H       1  UNL1        0.1451
     16 H         139.9436  139.2761  172.1196 H       1  UNL1        0.1919
     17 C         144.0289  144.4068  164.4492 C.3     1  UNL1        0.0770
     18 C         143.1956  144.8050  163.2672 C.3     1  UNL1        0.0437
     19 C         141.7712  144.3462  163.1650 C.ar    1  UNL1       -0.0207
     20 C         140.7197  144.9643  164.0382 C.ar    1  UNL1       -0.0034
     21 C         139.2953  144.5055  163.9360 C.ar    1  UNL1        0.0111
     22 C         138.9222  143.4286  162.9606 C.ar    1  UNL1        0.0577
     23 CL        137.4978  142.9699  162.8584 Cl      1  UNL1       -0.0822
     24 C         139.9737  142.8106  162.0874 C.ar    1  UNL1        0.0111
     25 C         141.3982  143.2694  162.1897 C.ar    1  UNL1       -0.0034
     26 C         145.1664  142.0949  164.1154 C.3     1  UNL1        0.1000
     27 C         144.7173  141.1390  163.0503 C.ar    1  UNL1        0.0046
     28 C         144.4952  141.6272  161.6495 C.ar    1  UNL1        0.0002
     29 C         144.0461  140.6712  160.5844 C.ar    1  UNL1        0.0294
     30 C         143.8192  139.2270  160.9201 C.ar    1  UNL1        0.1410
     31 F         143.3702  138.2710  159.8550 F       1  UNL1       -0.2041
     32 C         144.0413  138.7387  162.3209 C.ar    1  UNL1        0.0407
     33 C         144.4904  139.6947  163.3860 C.ar    1  UNL1        0.0572
     34 CL        144.7125  139.2065  164.7868 Cl      1  UNL1       -0.0825
@<TRIPOS>BOND
     1     8     9    1
     2     9    10   ar
     3    10    11   ar
     4    11     2    1
     5     2     3    1
     6     3     4    1
     7     4     5    1
     8     5     1    1
     9     1    17    1
    10    17    18    1
    11    18    19    1
    12    19    20   ar
    13    20    21   ar
    14    21    22   ar
    15    22    23    1
    16    22    24   ar
    17    24    25   ar
    18     1    26    1
    19    26    27    1
    20    27    28   ar
    21    28    29   ar
    22    29    30   ar
    23    30    31    1
    24    30    32   ar
    25    32    33   ar
    26    33    34    1
    27     5     6    1
    28     6     7    1
    29    11    12   ar
    30    12    13   ar
    31    13     9   ar
    32     7     2    1
    33    25    19   ar
    34    33    27   ar
    35     8    14    1
    36     8    15    1
    37    13    16    1
