@<TRIPOS>MOLECULE
*****
 31 35 0 0 0
SMALL
GASTEIGER

@<TRIPOS>ATOM
      1 O         137.2923  140.9550  162.7821 O.2     1  UNL1       -0.2699
      2 C         138.6515  140.5002  163.2245 C.2     1  UNL1        0.2494
      3 N         139.5974  139.8892  162.2335 N.am    1  UNL1       -0.2670
      4 C         139.1841  139.7332  160.8000 C.3     1  UNL1        0.1186
      5 C         140.1300  139.1223  159.8091 C.3     1  UNL1        0.1302
      6 N         141.4892  138.6674  160.2516 N.ar    1  UNL1       -0.2944
      7 C         141.9024  138.8235  161.6850 C.ar    1  UNL1        0.1636
      8 N         143.2958  138.2865  161.8267 N.ar    1  UNL1       -0.1315
      9 N         143.7437  137.7986  160.4809 N.ar    1  UNL1       -0.1274
     10 C         142.6272  138.0340  159.5073 C.ar    1  UNL1        0.1845
     11 C         140.9566  139.4344  162.6760 C.3     1  UNL1        0.1599
     12 C         139.0648  140.6562  164.6580 C.ar    1  UNL1        0.0536
     13 C         139.7837  141.8961  165.1005 C.ar    1  UNL1        0.0045
     14 C         140.1970  142.0521  166.5341 C.ar    1  UNL1        0.0006
     15 C         139.8913  140.9683  167.5249 C.ar    1  UNL1        0.0060
     16 C         139.1724  139.7284  167.0824 C.ar    1  UNL1        0.0006
     17 C         138.7591  139.5724  165.6489 C.ar    1  UNL1        0.0045
     18 C         140.3046  141.1244  168.9584 C.ar    1  UNL1        0.0295
     19 C         140.1507  142.3629  169.7905 C.ar    1  UNL1        0.0070
     20 C         140.6954  142.0733  171.1578 C.ar    1  UNL1        0.0075
     21 C         141.1859  140.6558  171.1707 C.ar    1  UNL1        0.0354
     22 S         140.9444  140.0693  169.8114 S.2     1  UNL1       -0.0864
     23 C         142.6453  137.6954  158.0462 C.ar    1  UNL1        0.1241
     24 C         142.5049  138.6690  156.9138 C.ar    1  UNL1        0.0590
     25 S         142.5799  137.8992  155.6286 S.2     1  UNL1       -0.0620
     26 C         142.7666  136.4498  155.9667 C.ar    1  UNL1        0.1825
     27 N         142.8071  136.3238  157.4608 N.ar    1  UNL1       -0.2314
     28 C         142.8911  135.3240  154.9833 C.3     1  UNL1        0.4407
     29 F         143.0156  134.1982  153.9999 F       1  UNL1       -0.1640
     30 F         141.6874  135.8337  154.2475 F       1  UNL1       -0.1640
     31 F         144.0948  134.8144  155.7191 F       1  UNL1       -0.1640
@<TRIPOS>BOND
     1     1     2    2
     2     2    12    1
     3    12    13   ar
     4    13    14   ar
     5    14    15   ar
     6    15    18    1
     7    18    19   ar
     8    19    20   ar
     9    20    21   ar
    10    21    22   ar
    11    15    16   ar
    12    16    17   ar
    13     2     3   am
    14     3     4    1
    15     4     5    1
    16     5     6    1
    17     6     7   ar
    18     7     8   ar
    19     8     9   ar
    20     9    10   ar
    21    10    23    1
    22    23    24   ar
    23    24    25   ar
    24    25    26   ar
    25    26    28    1
    26    28    29    1
    27    28    30    1
    28    28    31    1
    29    26    27   ar
    30     7    11    1
    31    17    12   ar
    32    11     3    1
    33    22    18   ar
    34    10     6   ar
    35    27    23   ar
@<TRIPOS>MOLECULE
*****
 31 35 0 0 0
SMALL
GASTEIGER

@<TRIPOS>ATOM
      1 O         137.6868  139.1407  162.0383 O.2     1  UNL1       -0.2699
      2 C         138.6968  140.1608  162.4731 C.2     1  UNL1        0.2494
      3 N         139.1066  141.2576  161.5353 N.am    1  UNL1       -0.2670
      4 C         138.5062  141.3342  160.1629 C.3     1  UNL1        0.1186
      5 C         138.9159  142.4309  159.2252 C.3     1  UNL1        0.1302
      6 N         139.9260  143.4510  159.6600 N.ar    1  UNL1       -0.2944
      7 C         140.5264  143.3745  161.0324 C.ar    1  UNL1        0.1636
      8 N         141.4915  144.5132  161.1804 N.ar    1  UNL1       -0.1315
      9 N         141.4876  145.2935  159.8993 N.ar    1  UNL1       -0.1274
     10 C         140.5201  144.6371  158.9596 C.ar    1  UNL1        0.1845
     11 C         140.1166  142.2778  161.9701 C.3     1  UNL1        0.1599
     12 C         139.2972  140.0843  163.8455 C.ar    1  UNL1        0.0536
     13 C         140.5430  139.2811  164.0755 C.ar    1  UNL1        0.0045
     14 C         141.1433  139.2045  165.4480 C.ar    1  UNL1        0.0006
     15 C         140.4979  139.9312  166.5905 C.ar    1  UNL1        0.0060
     16 C         139.2521  140.7344  166.3606 C.ar    1  UNL1        0.0006
     17 C         138.6518  140.8109  164.9881 C.ar    1  UNL1        0.0045
     18 C         141.0982  139.8546  167.9630 C.ar    1  UNL1        0.0295
     19 C         142.4956  139.4190  168.2910 C.ar    1  UNL1        0.0070
     20 C         142.6677  139.4954  169.7791 C.ar    1  UNL1        0.0075
     21 C         141.3766  139.9781  170.3709 C.ar    1  UNL1        0.0354
     22 S         140.4067  140.2001  169.2484 S.2     1  UNL1       -0.0864
     23 C         140.2024  145.0876  157.5646 C.ar    1  UNL1        0.1241
     24 C         139.9570  144.1950  156.3843 C.ar    1  UNL1        0.0590
     25 S         139.6773  145.0655  155.1952 S.2     1  UNL1       -0.0620
     26 C         139.7498  146.4960  155.6405 C.ar    1  UNL1        0.1825
     27 N         140.0744  146.5097  157.1049 N.ar    1  UNL1       -0.2314
     28 C         139.5355  147.7012  154.7737 C.3     1  UNL1        0.4407
     29 F         139.3211  148.9065  153.9068 F       1  UNL1       -0.1640
     30 F         138.6431  148.2966  155.8222 F       1  UNL1       -0.1640
     31 F         140.4278  147.1059  153.7252 F       1  UNL1       -0.1640
@<TRIPOS>BOND
     1     1     2    2
     2     2    12    1
     3    12    13   ar
     4    13    14   ar
     5    14    15   ar
     6    15    18    1
     7    18    19   ar
     8    19    20   ar
     9    20    21   ar
    10    21    22   ar
    11    15    16   ar
    12    16    17   ar
    13     2     3   am
    14     3     4    1
    15     4     5    1
    16     5     6    1
    17     6     7   ar
    18     7     8   ar
    19     8     9   ar
    20     9    10   ar
    21    10    23    1
    22    23    24   ar
    23    24    25   ar
    24    25    26   ar
    25    26    28    1
    26    28    29    1
    27    28    30    1
    28    28    31    1
    29    26    27   ar
    30     7    11    1
    31    17    12   ar
    32    11     3    1
    33    22    18   ar
    34    10     6   ar
    35    27    23   ar
@<TRIPOS>MOLECULE
*****
 31 35 0 0 0
SMALL
GASTEIGER

@<TRIPOS>ATOM
      1 O         145.2315  140.9948  162.5775 O.2     1  UNL1       -0.2699
      2 C         143.9857  141.6955  163.0325 C.2     1  UNL1        0.2494
      3 N         143.2019  142.5344  162.0671 N.am    1  UNL1       -0.2670
      4 C         143.6639  142.6726  160.6467 C.3     1  UNL1        0.1186
      5 C         142.8801  143.5114  159.6814 C.3     1  UNL1        0.1302
      6 N         141.6342  144.2121  160.1364 N.ar    1  UNL1       -0.2944
      7 C         141.1722  144.0739  161.5568 C.ar    1  UNL1        0.1636
      8 N         139.9150  144.8765  161.7155 N.ar    1  UNL1       -0.1315
      9 N         139.6000  145.5108  160.3931 N.ar    1  UNL1       -0.1274
     10 C         140.6625  145.1002  159.4172 C.ar    1  UNL1        0.1845
     11 C         141.9561  143.2350  162.5221 C.3     1  UNL1        0.1599
     12 C         143.5237  141.5572  164.4528 C.ar    1  UNL1        0.0536
     13 C         143.8113  142.6454  165.4443 C.ar    1  UNL1        0.0045
     14 C         143.3493  142.5072  166.8648 C.ar    1  UNL1        0.0006
     15 C         142.5997  141.2808  167.2936 C.ar    1  UNL1        0.0060
     16 C         142.3121  140.1926  166.3021 C.ar    1  UNL1        0.0006
     17 C         142.7741  140.3308  164.8817 C.ar    1  UNL1        0.0045
     18 C         142.1377  141.1425  168.7139 C.ar    1  UNL1        0.0295
     19 C         141.1993  140.0963  169.2379 C.ar    1  UNL1        0.0070
     20 C         141.0146  140.3334  170.7075 C.ar    1  UNL1        0.0075
     21 C         141.8389  141.5263  171.0918 C.ar    1  UNL1        0.0354
     22 S         142.5330  142.0263  169.8596 S.2     1  UNL1       -0.0864
     23 C         140.7398  145.5063  157.9753 C.ar    1  UNL1        0.1241
     24 C         141.6107  144.8782  156.9280 C.ar    1  UNL1        0.0590
     25 S         141.3690  145.5955  155.6330 S.2     1  UNL1       -0.0620
     26 C         140.3487  146.6669  155.8800 C.ar    1  UNL1        0.1825
     27 N         139.9598  146.6118  157.3277 N.ar    1  UNL1       -0.2314
     28 C         139.8115  147.6252  154.8586 C.3     1  UNL1        0.4407
     29 F         139.2744  148.5835  153.8373 F       1  UNL1       -0.1640
     30 F         140.8123  147.1225  153.8607 F       1  UNL1       -0.1640
     31 F         138.8108  148.1278  155.8566 F       1  UNL1       -0.1640
@<TRIPOS>BOND
     1     1     2    2
     2     2    12    1
     3    12    13   ar
     4    13    14   ar
     5    14    15   ar
     6    15    18    1
     7    18    19   ar
     8    19    20   ar
     9    20    21   ar
    10    21    22   ar
    11    15    16   ar
    12    16    17   ar
    13     2     3   am
    14     3     4    1
    15     4     5    1
    16     5     6    1
    17     6     7   ar
    18     7     8   ar
    19     8     9   ar
    20     9    10   ar
    21    10    23    1
    22    23    24   ar
    23    24    25   ar
    24    25    26   ar
    25    26    28    1
    26    28    29    1
    27    28    30    1
    28    28    31    1
    29    26    27   ar
    30     7    11    1
    31    17    12   ar
    32    11     3    1
    33    22    18   ar
    34    10     6   ar
    35    27    23   ar
@<TRIPOS>MOLECULE
*****
 31 35 0 0 0
SMALL
GASTEIGER

@<TRIPOS>ATOM
      1 O         138.4773  137.2325  163.4651 O.2     1  UNL1       -0.2699
      2 C         139.0604  138.6142  163.4953 C.2     1  UNL1        0.2494
      3 N         138.8849  139.5282  162.3188 N.am    1  UNL1       -0.2670
      4 C         138.1264  139.0604  161.1123 C.3     1  UNL1        0.1186
      5 C         137.9510  139.9743  159.9359 C.3     1  UNL1        0.1302
      6 N         138.5341  141.3560  159.9661 N.ar    1  UNL1       -0.2944
      7 C         139.2926  141.8238  161.1726 C.ar    1  UNL1        0.1636
      8 N         139.7508  143.2288  160.9160 N.ar    1  UNL1       -0.1315
      9 N         139.2755  143.6295  159.5509 N.ar    1  UNL1       -0.1274
     10 C         138.5235  142.4720  158.9637 C.ar    1  UNL1        0.1845
     11 C         139.4680  140.9099  162.3490 C.3     1  UNL1        0.1599
     12 C         139.8189  139.0820  164.7018 C.ar    1  UNL1        0.0536
     13 C         141.3030  138.8788  164.7800 C.ar    1  UNL1        0.0045
     14 C         142.0615  139.3466  165.9866 C.ar    1  UNL1        0.0006
     15 C         141.3359  140.0176  167.1150 C.ar    1  UNL1        0.0060
     16 C         139.8518  140.2207  167.0368 C.ar    1  UNL1        0.0006
     17 C         139.0933  139.7530  165.8303 C.ar    1  UNL1        0.0045
     18 C         142.0944  140.4853  168.3215 C.ar    1  UNL1        0.0295
     19 C         142.8640  141.7677  168.4366 C.ar    1  UNL1        0.0070
     20 C         143.4618  141.8278  169.8111 C.ar    1  UNL1        0.0075
     21 C         143.0616  140.5826  170.5455 C.ar    1  UNL1        0.0354
     22 S         142.2166  139.7529  169.6249 S.2     1  UNL1       -0.0864
     23 C         137.8748  142.4367  157.6117 C.ar    1  UNL1        0.1241
     24 C         138.1893  143.3435  156.4590 C.ar    1  UNL1        0.0590
     25 S         137.3066  142.9556  155.3100 S.2     1  UNL1       -0.0620
     26 C         136.4466  141.8091  155.7524 C.ar    1  UNL1        0.1825
     27 N         136.7978  141.4883  157.1750 N.ar    1  UNL1       -0.2314
     28 C         135.4164  141.1066  154.9187 C.3     1  UNL1        0.4407
     29 F         134.3861  140.4041  154.0850 F       1  UNL1       -0.1640
     30 F         134.4927  141.0598  156.0997 F       1  UNL1       -0.1640
     31 F         136.3401  141.1534  153.7378 F       1  UNL1       -0.1640
@<TRIPOS>BOND
     1     1     2    2
     2     2    12    1
     3    12    13   ar
     4    13    14   ar
     5    14    15   ar
     6    15    18    1
     7    18    19   ar
     8    19    20   ar
     9    20    21   ar
    10    21    22   ar
    11    15    16   ar
    12    16    17   ar
    13     2     3   am
    14     3     4    1
    15     4     5    1
    16     5     6    1
    17     6     7   ar
    18     7     8   ar
    19     8     9   ar
    20     9    10   ar
    21    10    23    1
    22    23    24   ar
    23    24    25   ar
    24    25    26   ar
    25    26    28    1
    26    28    29    1
    27    28    30    1
    28    28    31    1
    29    26    27   ar
    30     7    11    1
    31    17    12   ar
    32    11     3    1
    33    22    18   ar
    34    10     6   ar
    35    27    23   ar
@<TRIPOS>MOLECULE
*****
 31 35 0 0 0
SMALL
GASTEIGER

@<TRIPOS>ATOM
      1 O         136.9464  141.3050  162.8409 O.2     1  UNL1       -0.2699
      2 C         138.2673  140.6570  163.1331 C.2     1  UNL1        0.2494
      3 N         139.0532  140.0226  162.0240 N.am    1  UNL1       -0.2670
      4 C         138.5181  140.0361  160.6228 C.3     1  UNL1        0.1186
      5 C         139.3039  139.4016  159.5138 C.3     1  UNL1        0.1302
      6 N         140.6248  138.7537  159.8061 N.ar    1  UNL1       -0.2944
      7 C         141.1599  138.7402  161.2073 C.ar    1  UNL1        0.1636
      8 N         142.4820  138.0318  161.1918 N.ar    1  UNL1       -0.1315
      9 N         142.7640  137.6075  159.7809 N.ar    1  UNL1       -0.1274
     10 C         141.6163  138.0536  158.9245 C.ar    1  UNL1        0.1845
     11 C         140.3740  139.3746  162.3163 C.3     1  UNL1        0.1599
     12 C         138.8024  140.6435  164.5343 C.ar    1  UNL1        0.0536
     13 C         139.6971  141.7511  165.0062 C.ar    1  UNL1        0.0045
     14 C         140.2322  141.7376  166.4076 C.ar    1  UNL1        0.0006
     15 C         139.8725  140.6165  167.3369 C.ar    1  UNL1        0.0060
     16 C         138.9778  139.5089  166.8650 C.ar    1  UNL1        0.0006
     17 C         138.4427  139.5224  165.4638 C.ar    1  UNL1        0.0045
     18 C         140.4076  140.6030  168.7381 C.ar    1  UNL1        0.0295
     19 C         139.6722  141.0490  169.9670 C.ar    1  UNL1        0.0070
     20 C         140.5820  140.8628  171.1449 C.ar    1  UNL1        0.0075
     21 C         141.8799  140.3016  170.6440 C.ar    1  UNL1        0.0354
     22 S         141.7720  140.1410  169.1565 S.2     1  UNL1       -0.0864
     23 C         141.4832  137.8377  157.4461 C.ar    1  UNL1        0.1241
     24 C         142.5691  138.0192  156.4274 C.ar    1  UNL1        0.0590
     25 S         141.9980  137.6961  155.0786 S.2     1  UNL1       -0.0620
     26 C         140.5591  137.3148  155.2636 C.ar    1  UNL1        0.1825
     27 N         140.2410  137.4023  156.7269 N.ar    1  UNL1       -0.2314
     28 C         139.6058  136.9159  154.1764 C.3     1  UNL1        0.4407
     29 F         138.6525  136.5171  153.0892 F       1  UNL1       -0.1640
     30 F         140.7317  136.9272  153.1852 F       1  UNL1       -0.1640
     31 F         138.4801  136.9047  155.1676 F       1  UNL1       -0.1640
@<TRIPOS>BOND
     1     1     2    2
     2     2    12    1
     3    12    13   ar
     4    13    14   ar
     5    14    15   ar
     6    15    18    1
     7    18    19   ar
     8    19    20   ar
     9    20    21   ar
    10    21    22   ar
    11    15    16   ar
    12    16    17   ar
    13     2     3   am
    14     3     4    1
    15     4     5    1
    16     5     6    1
    17     6     7   ar
    18     7     8   ar
    19     8     9   ar
    20     9    10   ar
    21    10    23    1
    22    23    24   ar
    23    24    25   ar
    24    25    26   ar
    25    26    28    1
    26    28    29    1
    27    28    30    1
    28    28    31    1
    29    26    27   ar
    30     7    11    1
    31    17    12   ar
    32    11     3    1
    33    22    18   ar
    34    10     6   ar
    35    27    23   ar
@<TRIPOS>MOLECULE
*****
 31 35 0 0 0
SMALL
GASTEIGER

@<TRIPOS>ATOM
      1 O         140.7939  145.6357  162.7831 O.2     1  UNL1       -0.2699
      2 C         140.6660  144.1533  162.9736 C.2     1  UNL1        0.2494
      3 N         140.1026  143.3018  161.8746 N.am    1  UNL1       -0.2670
      4 C         139.6671  143.9326  160.5853 C.3     1  UNL1        0.1186
      5 C         139.1037  143.0811  159.4865 C.3     1  UNL1        0.1302
      6 N         138.9759  141.5988  159.6769 N.ar    1  UNL1       -0.2944
      7 C         139.4114  140.9679  160.9662 C.ar    1  UNL1        0.1636
      8 N         139.1664  139.4915  160.8658 N.ar    1  UNL1       -0.1315
      9 N         138.5795  139.2098  159.5144 N.ar    1  UNL1       -0.1274
     10 C         138.4617  140.5122  158.7796 C.ar    1  UNL1        0.1845
     11 C         139.9748  141.8194  162.0651 C.3     1  UNL1        0.1599
     12 C         141.1015  143.5224  164.2629 C.ar    1  UNL1        0.0536
     13 C         140.1103  143.3172  165.3698 C.ar    1  UNL1        0.0045
     14 C         140.5459  142.6863  166.6592 C.ar    1  UNL1        0.0006
     15 C         141.9726  142.2607  166.8415 C.ar    1  UNL1        0.0060
     16 C         142.9638  142.4659  165.7345 C.ar    1  UNL1        0.0006
     17 C         142.5283  143.0968  164.4452 C.ar    1  UNL1        0.0045
     18 C         142.4081  141.6298  168.1308 C.ar    1  UNL1        0.0295
     19 C         143.3153  142.2484  169.1527 C.ar    1  UNL1        0.0070
     20 C         143.4808  141.2705  170.2780 C.ar    1  UNL1        0.0075
     21 C         142.6758  140.0476  169.9516 C.ar    1  UNL1        0.0354
     22 S         142.0129  140.2697  168.6245 S.2     1  UNL1       -0.0864
     23 C         137.9242  140.6958  157.3913 C.ar    1  UNL1        0.1241
     24 C         138.7366  140.9690  156.1603 C.ar    1  UNL1        0.0590
     25 S         137.7944  141.0805  154.9985 S.2     1  UNL1       -0.0620
     26 C         136.3998  140.8763  155.5114 C.ar    1  UNL1        0.1825
     27 N         136.4799  140.6386  156.9903 N.ar    1  UNL1       -0.2314
     28 C         135.1451  140.9048  154.6898 C.3     1  UNL1        0.4407
     29 F         133.8905  140.9334  153.8681 F       1  UNL1       -0.1640
     30 F         135.4360  142.3225  154.2950 F       1  UNL1       -0.1640
     31 F         134.8543  139.4873  155.0846 F       1  UNL1       -0.1640
@<TRIPOS>BOND
     1     1     2    2
     2     2    12    1
     3    12    13   ar
     4    13    14   ar
     5    14    15   ar
     6    15    18    1
     7    18    19   ar
     8    19    20   ar
     9    20    21   ar
    10    21    22   ar
    11    15    16   ar
    12    16    17   ar
    13     2     3   am
    14     3     4    1
    15     4     5    1
    16     5     6    1
    17     6     7   ar
    18     7     8   ar
    19     8     9   ar
    20     9    10   ar
    21    10    23    1
    22    23    24   ar
    23    24    25   ar
    24    25    26   ar
    25    26    28    1
    26    28    29    1
    27    28    30    1
    28    28    31    1
    29    26    27   ar
    30     7    11    1
    31    17    12   ar
    32    11     3    1
    33    22    18   ar
    34    10     6   ar
    35    27    23   ar
@<TRIPOS>MOLECULE
*****
 31 35 0 0 0
SMALL
GASTEIGER

@<TRIPOS>ATOM
      1 O         142.9095  145.2446  163.3808 O.2     1  UNL1       -0.2699
      2 C         142.7672  143.7592  163.5340 C.2     1  UNL1        0.2494
      3 N         143.0219  142.8567  162.3632 N.am    1  UNL1       -0.2670
      4 C         143.4187  143.4395  161.0393 C.3     1  UNL1        0.1186
      5 C         143.6734  142.5370  159.8686 C.3     1  UNL1        0.1302
      6 N         143.5311  141.0517  160.0218 N.ar    1  UNL1       -0.2944
      7 C         143.1342  140.4688  161.3457 C.ar    1  UNL1        0.1636
      8 N         143.0733  138.9776  161.1960 N.ar    1  UNL1       -0.1315
      9 N         143.4325  138.6387  159.7796 N.ar    1  UNL1       -0.1274
     10 C         143.7154  139.9206  159.0539 C.ar    1  UNL1        0.1845
     11 C         142.8796  141.3713  162.5164 C.3     1  UNL1        0.1599
     12 C         142.3704  143.1764  164.8579 C.ar    1  UNL1        0.0536
     13 C         140.9192  143.0165  165.2022 C.ar    1  UNL1        0.0045
     14 C         140.5224  142.4336  166.5262 C.ar    1  UNL1        0.0006
     15 C         141.5766  142.0107  167.5057 C.ar    1  UNL1        0.0060
     16 C         143.0278  142.1705  167.1614 C.ar    1  UNL1        0.0006
     17 C         143.4247  142.7534  165.8375 C.ar    1  UNL1        0.0045
     18 C         141.1798  141.4278  168.8296 C.ar    1  UNL1        0.0295
     19 C         140.1190  140.3913  169.0542 C.ar    1  UNL1        0.0070
     20 C         140.0576  140.1020  170.5248 C.ar    1  UNL1        0.0075
     21 C         141.0804  140.9597  171.2091 C.ar    1  UNL1        0.0354
     22 S         141.7739  141.7791  170.1614 S.2     1  UNL1       -0.0864
     23 C         144.1129  140.0489  157.6132 C.ar    1  UNL1        0.1241
     24 C         143.3637  139.4923  156.4390 C.ar    1  UNL1        0.0590
     25 S         144.1172  139.8558  155.1939 S.2     1  UNL1       -0.0620
     26 C         145.3320  140.6370  155.5986 C.ar    1  UNL1        0.1825
     27 N         145.3294  140.7564  157.0939 N.ar    1  UNL1       -0.2314
     28 C         146.3676  141.2000  154.6710 C.3     1  UNL1        0.4407
     29 F         147.4032  141.7630  153.7433 F       1  UNL1       -0.1640
     30 F         147.2963  141.4032  155.8313 F       1  UNL1       -0.1640
     31 F         145.4389  140.9967  153.5107 F       1  UNL1       -0.1640
@<TRIPOS>BOND
     1     1     2    2
     2     2    12    1
     3    12    13   ar
     4    13    14   ar
     5    14    15   ar
     6    15    18    1
     7    18    19   ar
     8    19    20   ar
     9    20    21   ar
    10    21    22   ar
    11    15    16   ar
    12    16    17   ar
    13     2     3   am
    14     3     4    1
    15     4     5    1
    16     5     6    1
    17     6     7   ar
    18     7     8   ar
    19     8     9   ar
    20     9    10   ar
    21    10    23    1
    22    23    24   ar
    23    24    25   ar
    24    25    26   ar
    25    26    28    1
    26    28    29    1
    27    28    30    1
    28    28    31    1
    29    26    27   ar
    30     7    11    1
    31    17    12   ar
    32    11     3    1
    33    22    18   ar
    34    10     6   ar
    35    27    23   ar
@<TRIPOS>MOLECULE
*****
 31 35 0 0 0
SMALL
GASTEIGER

@<TRIPOS>ATOM
      1 O         143.4528  139.2532  155.9026 O.2     1  UNL1       -0.2699
      2 C         142.5350  138.4259  156.7530 C.2     1  UNL1        0.2494
      3 N         141.7777  139.0642  157.8796 N.am    1  UNL1       -0.2670
      4 C         141.9384  140.5297  158.1559 C.3     1  UNL1        0.1186
      5 C         141.1812  141.1680  159.2824 C.3     1  UNL1        0.1302
      6 N         140.2634  140.3407  160.1328 N.ar    1  UNL1       -0.2944
      7 C         140.1027  138.8751  159.8566 C.ar    1  UNL1        0.1636
      8 N         139.1333  138.3185  160.8568 N.ar    1  UNL1       -0.1315
      9 N         138.6948  139.4400  161.7512 N.ar    1  UNL1       -0.1274
     10 C         139.3932  140.6898  161.3038 C.ar    1  UNL1        0.1845
     11 C         140.8599  138.2369  158.7300 C.3     1  UNL1        0.1599
     12 C         142.3743  136.9603  156.4768 C.ar    1  UNL1        0.0536
     13 C         141.3541  136.4921  155.4818 C.ar    1  UNL1        0.0045
     14 C         141.1935  135.0264  155.2056 C.ar    1  UNL1        0.0006
     15 C         142.0530  134.0292  155.9244 C.ar    1  UNL1        0.0060
     16 C         143.0732  134.4974  156.9193 C.ar    1  UNL1        0.0006
     17 C         143.2339  135.9630  157.1955 C.ar    1  UNL1        0.0045
     18 C         141.8924  132.5636  155.6482 C.ar    1  UNL1        0.0295
     19 C         140.8763  131.9448  154.7346 C.ar    1  UNL1        0.0070
     20 C         141.0755  130.4583  154.7588 C.ar    1  UNL1        0.0075
     21 C         142.2147  130.1584  155.6874 C.ar    1  UNL1        0.0354
     22 S         142.7196  131.4595  156.2370 S.2     1  UNL1       -0.0864
     23 C         139.2472  142.0499  161.9192 C.ar    1  UNL1        0.1241
     24 C         139.2922  143.3583  161.1871 C.ar    1  UNL1        0.0590
     25 S         139.1034  144.4575  162.1901 S.2     1  UNL1       -0.0620
     26 C         138.9416  143.8285  163.5422 C.ar    1  UNL1        0.1825
     27 N         139.0304  142.3405  163.3747 N.ar    1  UNL1       -0.2314
     28 C         138.7283  144.5591  164.8347 C.3     1  UNL1        0.4407
     29 F         138.5151  145.2897  166.1273 F       1  UNL1       -0.1640
     30 F         140.1350  145.0765  164.7742 F       1  UNL1       -0.1640
     31 F         137.3217  144.0416  164.8952 F       1  UNL1       -0.1640
@<TRIPOS>BOND
     1     1     2    2
     2     2    12    1
     3    12    13   ar
     4    13    14   ar
     5    14    15   ar
     6    15    18    1
     7    18    19   ar
     8    19    20   ar
     9    20    21   ar
    10    21    22   ar
    11    15    16   ar
    12    16    17   ar
    13     2     3   am
    14     3     4    1
    15     4     5    1
    16     5     6    1
    17     6     7   ar
    18     7     8   ar
    19     8     9   ar
    20     9    10   ar
    21    10    23    1
    22    23    24   ar
    23    24    25   ar
    24    25    26   ar
    25    26    28    1
    26    28    29    1
    27    28    30    1
    28    28    31    1
    29    26    27   ar
    30     7    11    1
    31    17    12   ar
    32    11     3    1
    33    22    18   ar
    34    10     6   ar
    35    27    23   ar
@<TRIPOS>MOLECULE
*****
 31 35 0 0 0
SMALL
GASTEIGER

@<TRIPOS>ATOM
      1 O         144.9807  137.6120  155.4198 O.2     1  UNL1       -0.2699
      2 C         143.6985  137.1755  156.0644 C.2     1  UNL1        0.2494
      3 N         142.9217  138.1362  156.9151 N.am    1  UNL1       -0.2670
      4 C         143.4270  139.5334  157.1212 C.3     1  UNL1        0.1186
      5 C         142.6502  140.4940  157.9719 C.3     1  UNL1        0.1302
      6 N         141.3680  140.0574  158.6165 N.ar    1  UNL1       -0.2944
      7 C         140.8627  138.6603  158.4104 C.ar    1  UNL1        0.1636
      8 N         139.5760  138.5163  159.1678 N.ar    1  UNL1       -0.1315
      9 N         139.2861  139.8246  159.8420 N.ar    1  UNL1       -0.1274
     10 C         140.3936  140.7771  159.5013 C.ar    1  UNL1        0.1845
     11 C         141.6395  137.6996  157.5597 C.3     1  UNL1        0.1599
     12 C         143.1932  135.7783  155.8583 C.ar    1  UNL1        0.0536
     13 C         142.3776  135.4472  154.6437 C.ar    1  UNL1        0.0045
     14 C         141.8723  134.0500  154.4377 C.ar    1  UNL1        0.0006
     15 C         142.1825  132.9839  155.4462 C.ar    1  UNL1        0.0060
     16 C         142.9981  133.3150  156.6608 C.ar    1  UNL1        0.0006
     17 C         143.5034  134.7121  156.8669 C.ar    1  UNL1        0.0045
     18 C         141.6772  131.5867  155.2401 C.ar    1  UNL1        0.0295
     19 C         140.3871  131.2046  154.5772 C.ar    1  UNL1        0.0070
     20 C         140.2858  129.7081  154.5881 C.ar    1  UNL1        0.0075
     21 C         141.5133  129.1652  155.2579 C.ar    1  UNL1        0.0354
     22 S         142.3733  130.3263  155.6608 S.2     1  UNL1       -0.0864
     23 C         140.5069  142.1994  159.9640 C.ar    1  UNL1        0.1241
     24 C         140.1000  143.4150  159.1851 C.ar    1  UNL1        0.0590
     25 S         140.3886  144.6227  160.0266 S.2     1  UNL1       -0.0620
     26 C         140.9737  144.1535  161.3256 C.ar    1  UNL1        0.1825
     27 N         141.0469  142.6558  161.2869 N.ar    1  UNL1       -0.2314
     28 C         141.4093  145.0285  162.4634 C.3     1  UNL1        0.4407
     29 F         141.8449  145.9034  163.6013 F       1  UNL1       -0.1640
     30 F         139.9740  145.3073  162.7984 F       1  UNL1       -0.1640
     31 F         142.8446  144.7496  162.1284 F       1  UNL1       -0.1640
@<TRIPOS>BOND
     1     1     2    2
     2     2    12    1
     3    12    13   ar
     4    13    14   ar
     5    14    15   ar
     6    15    18    1
     7    18    19   ar
     8    19    20   ar
     9    20    21   ar
    10    21    22   ar
    11    15    16   ar
    12    16    17   ar
    13     2     3   am
    14     3     4    1
    15     4     5    1
    16     5     6    1
    17     6     7   ar
    18     7     8   ar
    19     8     9   ar
    20     9    10   ar
    21    10    23    1
    22    23    24   ar
    23    24    25   ar
    24    25    26   ar
    25    26    28    1
    26    28    29    1
    27    28    30    1
    28    28    31    1
    29    26    27   ar
    30     7    11    1
    31    17    12   ar
    32    11     3    1
    33    22    18   ar
    34    10     6   ar
    35    27    23   ar
