@<TRIPOS>MOLECULE
*****
 33 36 0 0 0
SMALL
GASTEIGER

@<TRIPOS>ATOM
      1 C         141.0147  138.2350  155.9851 C.2     1  UNL1        0.2383
      2 O         139.6639  138.4621  155.3738 O.2     1  UNL1       -0.2735
      3 N         141.1684  138.2115  157.4770 N.am    1  UNL1       -0.2695
      4 C         142.5193  137.9844  158.0882 C.3     1  UNL1        0.1184
      5 C         142.6730  137.9608  159.5801 C.3     1  UNL1        0.1299
      6 N         141.4760  138.1644  160.4608 N.ar    1  UNL1       -0.3005
      7 C         140.1252  138.3915  159.8495 C.ar    1  UNL1        0.1416
      8 N         139.1348  138.5605  160.9634 N.ar    1  UNL1       -0.2279
      9 C         139.8736  138.4379  162.2631 C.ar    1  UNL1        0.1125
     10 C         141.3205  138.1931  161.9524 C.ar    1  UNL1        0.1318
     11 C         139.9714  138.4150  158.3576 C.3     1  UNL1        0.1578
     12 C         139.2712  138.5418  163.6329 C.ar    1  UNL1        0.0205
     13 C         139.0505  137.3041  164.4510 C.ar    1  UNL1        0.0039
     14 C         138.4482  137.4080  165.8208 C.ar    1  UNL1        0.0297
     15 C         138.0666  138.7496  166.3725 C.ar    1  UNL1        0.1401
     16 F         137.4642  138.8535  167.7424 F       1  UNL1       -0.2042
     17 C         138.2873  139.9873  165.5544 C.ar    1  UNL1        0.0297
     18 C         138.8897  139.8834  164.1846 C.ar    1  UNL1        0.0039
     19 C         142.4706  139.5089  155.1148 C.3     1  UNL1        0.0249
     20 C         142.2117  138.0315  155.1044 C.3     1  UNL1        0.1089
     21 C         141.9528  136.5540  155.0940 C.3     1  UNL1        0.0249
     22 N         143.4088  137.8279  154.2237 N.3     1  UNL1       -0.3164
     23 H         143.5142  136.8346  154.0174 H       1  UNL1        0.1192
     24 H         144.2440  138.1664  154.7016 H       1  UNL1        0.1192
     25 N         142.4191  138.0092  162.9570 N.pl3   1  UNL1       -0.2980
     26 H         143.0574  137.2662  162.8580 H       1  UNL1        0.1536
     27 C         142.5453  138.9573  164.1125 C.ar    1  UNL1        0.0494
     28 C         142.6949  140.4287  163.8625 C.ar    1  UNL1        0.0155
     29 C         142.8211  141.3768  165.0181 C.ar    1  UNL1        0.0127
     30 C         142.7976  140.8534  166.4237 C.ar    1  UNL1        0.0578
     31 CL        142.9238  141.8015  167.5791 Cl      1  UNL1       -0.0822
     32 C         142.6480  139.3820  166.6737 C.ar    1  UNL1        0.0127
     33 C         142.5218  138.4339  165.5181 C.ar    1  UNL1        0.0155
@<TRIPOS>BOND
     1    19    20    1
     2    20    21    1
     3    20    22    1
     4    20     1    1
     5     1     2    2
     6     1     3   am
     7     3     4    1
     8     4     5    1
     9     5     6    1
    10     6     7   ar
    11     7     8   ar
    12     8     9   ar
    13     9    12    1
    14    12    13   ar
    15    13    14   ar
    16    14    15   ar
    17    15    16    1
    18    15    17   ar
    19    17    18   ar
    20     9    10   ar
    21    10    25    1
    22    25    27    1
    23    27    28   ar
    24    28    29   ar
    25    29    30   ar
    26    30    31    1
    27    30    32   ar
    28    32    33   ar
    29     7    11    1
    30    11     3    1
    31    10     6   ar
    32    33    27   ar
    33    18    12   ar
    34    22    23    1
    35    22    24    1
    36    25    26    1
@<TRIPOS>MOLECULE
*****
 33 36 0 0 0
SMALL
GASTEIGER

@<TRIPOS>ATOM
      1 C         142.1133  140.5619  169.9650 C.2     1  UNL1        0.2383
      2 O         143.3409  139.8265  170.4148 O.2     1  UNL1       -0.2735
      3 N         141.6949  140.5127  168.5254 N.am    1  UNL1       -0.2695
      4 C         140.4673  141.2480  168.0756 C.3     1  UNL1        0.1184
      5 C         140.0489  141.1989  166.6360 C.3     1  UNL1        0.1299
      6 N         140.8580  140.4143  165.6462 N.ar    1  UNL1       -0.3005
      7 C         142.0855  139.6789  166.0960 C.ar    1  UNL1        0.1416
      8 N         142.6794  138.9938  164.9010 N.ar    1  UNL1       -0.2279
      9 C         141.8189  139.3058  163.7127 C.ar    1  UNL1        0.1125
     10 C         140.6932  140.1837  164.1732 C.ar    1  UNL1        0.1318
     11 C         142.5040  139.7281  167.5356 C.3     1  UNL1        0.1578
     12 C         142.0444  138.8244  162.3100 C.ar    1  UNL1        0.0205
     13 C         140.9674  138.9877  161.2787 C.ar    1  UNL1        0.0039
     14 C         141.1929  138.5064  159.8761 C.ar    1  UNL1        0.0297
     15 C         142.4954  137.8618  159.5047 C.ar    1  UNL1        0.1401
     16 F         142.7209  137.3804  158.1020 F       1  UNL1       -0.2042
     17 C         143.5724  137.6985  160.5359 C.ar    1  UNL1        0.0297
     18 C         143.3469  138.1798  161.9385 C.ar    1  UNL1        0.0039
     19 C         142.2401  142.5082  170.7989 C.3     1  UNL1        0.0249
     20 C         141.3042  141.3464  170.9549 C.3     1  UNL1        0.1089
     21 C         140.3684  140.1846  171.1108 C.3     1  UNL1        0.0249
     22 N         140.4951  142.1311  171.9448 N.3     1  UNL1       -0.3164
     23 H         139.7117  141.5641  172.2691 H       1  UNL1        0.1192
     24 H         140.1408  142.9775  171.4994 H       1  UNL1        0.1192
     25 N         139.5954  140.7344  163.3121 N.pl3   1  UNL1       -0.2980
     26 H         138.8686  140.1456  163.0048 H       1  UNL1        0.1536
     27 C         139.6049  142.1819  162.9191 C.ar    1  UNL1        0.0494
     28 C         140.7443  142.7331  162.1141 C.ar    1  UNL1        0.0155
     29 C         140.7538  144.1808  161.7212 C.ar    1  UNL1        0.0127
     30 C         139.6238  145.0771  162.1331 C.ar    1  UNL1        0.0578
     31 CL        139.6333  146.5247  161.7401 Cl      1  UNL1       -0.0822
     32 C         138.4844  144.5259  162.9381 C.ar    1  UNL1        0.0127
     33 C         138.4750  143.0783  163.3310 C.ar    1  UNL1        0.0155
@<TRIPOS>BOND
     1    19    20    1
     2    20    21    1
     3    20    22    1
     4    20     1    1
     5     1     2    2
     6     1     3   am
     7     3     4    1
     8     4     5    1
     9     5     6    1
    10     6     7   ar
    11     7     8   ar
    12     8     9   ar
    13     9    12    1
    14    12    13   ar
    15    13    14   ar
    16    14    15   ar
    17    15    16    1
    18    15    17   ar
    19    17    18   ar
    20     9    10   ar
    21    10    25    1
    22    25    27    1
    23    27    28   ar
    24    28    29   ar
    25    29    30   ar
    26    30    31    1
    27    30    32   ar
    28    32    33   ar
    29     7    11    1
    30    11     3    1
    31    10     6   ar
    32    33    27   ar
    33    18    12   ar
    34    22    23    1
    35    22    24    1
    36    25    26    1
@<TRIPOS>MOLECULE
*****
 33 36 0 0 0
SMALL
GASTEIGER

@<TRIPOS>ATOM
      1 C         142.4704  138.2645  155.8740 C.2     1  UNL1        0.2383
      2 O         141.7608  138.9737  154.7589 O.2     1  UNL1       -0.2735
      3 N         142.1992  138.6469  157.2988 N.am    1  UNL1       -0.2695
      4 C         142.9088  137.9376  158.4138 C.3     1  UNL1        0.1184
      5 C         142.6375  138.3200  159.8387 C.3     1  UNL1        0.1299
      6 N         141.6566  139.4116  160.1485 N.ar    1  UNL1       -0.3005
      7 C         140.9469  140.1209  159.0335 C.ar    1  UNL1        0.1416
      8 N         140.0399  141.1495  159.6414 N.ar    1  UNL1       -0.2279
      9 C         140.1891  141.0759  161.1321 C.ar    1  UNL1        0.1125
     10 C         141.1882  140.0019  161.4455 C.ar    1  UNL1        0.1318
     11 C         141.2182  139.7385  157.6086 C.3     1  UNL1        0.1578
     12 C         139.4661  141.9270  162.1337 C.ar    1  UNL1        0.0205
     13 C         140.1367  143.1374  162.7125 C.ar    1  UNL1        0.0039
     14 C         139.4138  143.9885  163.7140 C.ar    1  UNL1        0.0297
     15 C         138.0202  143.6290  164.1367 C.ar    1  UNL1        0.1401
     16 F         137.2972  144.4801  165.1382 F       1  UNL1       -0.2042
     17 C         137.3496  142.4186  163.5579 C.ar    1  UNL1        0.0297
     18 C         138.0725  141.5675  162.5564 C.ar    1  UNL1        0.0039
     19 C         144.5232  138.1987  155.3431 C.3     1  UNL1        0.0249
     20 C         143.4514  137.1728  155.5642 C.3     1  UNL1        0.1089
     21 C         142.3797  136.1470  155.7852 C.3     1  UNL1        0.0249
     22 N         144.4325  136.0812  155.2543 N.3     1  UNL1       -0.3164
     23 H         143.9677  135.1760  155.3258 H       1  UNL1        0.1192
     24 H         145.2054  136.1200  155.9188 H       1  UNL1        0.1192
     25 N         141.6398  139.5903  162.8154 N.pl3   1  UNL1       -0.2980
     26 H         142.6010  139.5277  163.0188 H       1  UNL1        0.1536
     27 C         140.6268  139.2741  163.8756 C.ar    1  UNL1        0.0494
     28 C         139.7601  138.0568  163.7455 C.ar    1  UNL1        0.0155
     29 C         138.7471  137.7406  164.8058 C.ar    1  UNL1        0.0127
     30 C         138.6009  138.6418  165.9960 C.ar    1  UNL1        0.0578
     31 CL        137.5880  138.3255  167.0561 Cl      1  UNL1       -0.0822
     32 C         139.4677  139.8590  166.1260 C.ar    1  UNL1        0.0127
     33 C         140.4806  140.1752  165.0659 C.ar    1  UNL1        0.0155
@<TRIPOS>BOND
     1    19    20    1
     2    20    21    1
     3    20    22    1
     4    20     1    1
     5     1     2    2
     6     1     3   am
     7     3     4    1
     8     4     5    1
     9     5     6    1
    10     6     7   ar
    11     7     8   ar
    12     8     9   ar
    13     9    12    1
    14    12    13   ar
    15    13    14   ar
    16    14    15   ar
    17    15    16    1
    18    15    17   ar
    19    17    18   ar
    20     9    10   ar
    21    10    25    1
    22    25    27    1
    23    27    28   ar
    24    28    29   ar
    25    29    30   ar
    26    30    31    1
    27    30    32   ar
    28    32    33   ar
    29     7    11    1
    30    11     3    1
    31    10     6   ar
    32    33    27   ar
    33    18    12   ar
    34    22    23    1
    35    22    24    1
    36    25    26    1
@<TRIPOS>MOLECULE
*****
 33 36 0 0 0
SMALL
GASTEIGER

@<TRIPOS>ATOM
      1 C         142.2705  142.3082  169.4783 C.2     1  UNL1        0.2383
      2 O         143.6639  142.8459  169.6169 O.2     1  UNL1       -0.2735
      3 N         141.8370  141.6709  168.1915 N.am    1  UNL1       -0.2695
      4 C         140.4436  141.1332  168.0529 C.3     1  UNL1        0.1184
      5 C         140.0101  140.4959  166.7660 C.3     1  UNL1        0.1299
      6 N         140.9700  140.3964  165.6177 N.ar    1  UNL1       -0.3005
      7 C         142.3634  140.9341  165.7563 C.ar    1  UNL1        0.1416
      8 N         143.0832  140.6957  164.4620 N.ar    1  UNL1       -0.2279
      9 C         142.1346  140.0107  163.5235 C.ar    1  UNL1        0.1125
     10 C         140.8286  139.8257  164.2378 C.ar    1  UNL1        0.1318
     11 C         142.7969  141.5714  167.0432 C.3     1  UNL1        0.1578
     12 C         142.4385  139.5852  162.1175 C.ar    1  UNL1        0.0205
     13 C         142.8259  138.1647  161.8309 C.ar    1  UNL1        0.0039
     14 C         143.1298  137.7393  160.4250 C.ar    1  UNL1        0.0297
     15 C         143.0464  138.7344  159.3057 C.ar    1  UNL1        0.1401
     16 F         143.3503  138.3090  157.8998 F       1  UNL1       -0.2042
     17 C         142.6590  140.1549  159.5923 C.ar    1  UNL1        0.0297
     18 C         142.3551  140.5803  160.9982 C.ar    1  UNL1        0.0039
     19 C         141.8547  141.1295  171.1923 C.3     1  UNL1        0.0249
     20 C         141.3105  142.4077  170.6266 C.3     1  UNL1        0.1089
     21 C         140.7664  143.6859  170.0609 C.3     1  UNL1        0.0249
     22 N         140.3506  142.5072  171.7749 N.3     1  UNL1       -0.3164
     23 H         139.7841  143.3493  171.6726 H       1  UNL1        0.1192
     24 H         140.8716  142.5524  172.6507 H       1  UNL1        0.1192
     25 N         139.5973  139.1828  163.6716 N.pl3   1  UNL1       -0.2980
     26 H         139.0971  138.5231  164.2043 H       1  UNL1        0.1536
     27 C         139.1280  139.5451  162.2937 C.ar    1  UNL1        0.0494
     28 C         138.5696  140.9115  162.0266 C.ar    1  UNL1        0.0155
     29 C         138.1004  141.2737  160.6487 C.ar    1  UNL1        0.0127
     30 C         138.1895  140.2696  159.5379 C.ar    1  UNL1        0.0578
     31 CL        137.7202  140.6320  158.1601 Cl      1  UNL1       -0.0822
     32 C         138.7478  138.9033  159.8050 C.ar    1  UNL1        0.0127
     33 C         139.2171  138.5411  161.1829 C.ar    1  UNL1        0.0155
@<TRIPOS>BOND
     1    19    20    1
     2    20    21    1
     3    20    22    1
     4    20     1    1
     5     1     2    2
     6     1     3   am
     7     3     4    1
     8     4     5    1
     9     5     6    1
    10     6     7   ar
    11     7     8   ar
    12     8     9   ar
    13     9    12    1
    14    12    13   ar
    15    13    14   ar
    16    14    15   ar
    17    15    16    1
    18    15    17   ar
    19    17    18   ar
    20     9    10   ar
    21    10    25    1
    22    25    27    1
    23    27    28   ar
    24    28    29   ar
    25    29    30   ar
    26    30    31    1
    27    30    32   ar
    28    32    33   ar
    29     7    11    1
    30    11     3    1
    31    10     6   ar
    32    33    27   ar
    33    18    12   ar
    34    22    23    1
    35    22    24    1
    36    25    26    1
@<TRIPOS>MOLECULE
*****
 33 36 0 0 0
SMALL
GASTEIGER

@<TRIPOS>ATOM
      1 C         142.5351  140.0845  156.7524 C.2     1  UNL1        0.2383
      2 O         141.2725  140.2776  155.9660 O.2     1  UNL1       -0.2735
      3 N         142.4677  139.8359  158.2301 N.am    1  UNL1       -0.2695
      4 C         143.7304  139.6428  159.0165 C.3     1  UNL1        0.1184
      5 C         143.6630  139.3942  160.4942 C.3     1  UNL1        0.1299
      6 N         142.3330  139.3386  161.1855 N.ar    1  UNL1       -0.3005
      7 C         141.0704  139.5316  160.3991 C.ar    1  UNL1        0.1416
      8 N         139.9128  139.4242  161.3471 N.ar    1  UNL1       -0.2279
      9 C         140.4601  139.1648  162.7194 C.ar    1  UNL1        0.1125
     10 C         141.9559  139.1119  162.6195 C.ar    1  UNL1        0.1318
     11 C         141.1377  139.7803  158.9214 C.3     1  UNL1        0.1578
     12 C         139.6533  138.9892  163.9718 C.ar    1  UNL1        0.0205
     13 C         139.2111  140.1904  164.7537 C.ar    1  UNL1        0.0039
     14 C         138.4043  140.0148  166.0060 C.ar    1  UNL1        0.0297
     15 C         138.0398  138.6380  166.4763 C.ar    1  UNL1        0.1401
     16 F         137.2330  138.4623  167.7287 F       1  UNL1       -0.2042
     17 C         138.4820  137.4367  165.6944 C.ar    1  UNL1        0.0297
     18 C         139.2888  137.6123  164.4421 C.ar    1  UNL1        0.0039
     19 C         143.7792  138.6697  155.7776 C.3     1  UNL1        0.0249
     20 C         143.8651  140.1401  156.0611 C.3     1  UNL1        0.1089
     21 C         143.9510  141.6105  156.3445 C.3     1  UNL1        0.0249
     22 N         145.1952  140.1956  155.3697 N.3     1  UNL1       -0.3164
     23 H         145.5517  141.1509  155.3947 H       1  UNL1        0.1192
     24 H         145.0870  139.8984  154.4000 H       1  UNL1        0.1192
     25 N         142.9074  138.8740  163.7544 N.pl3   1  UNL1       -0.2980
     26 H         143.5718  138.1498  163.6961 H       1  UNL1        0.1536
     27 C         142.8468  139.7394  164.9780 C.ar    1  UNL1        0.0494
     28 C         142.5921  139.1223  166.3213 C.ar    1  UNL1        0.0155
     29 C         142.5314  139.9879  167.5449 C.ar    1  UNL1        0.0127
     30 C         142.7255  141.4705  167.4253 C.ar    1  UNL1        0.0578
     31 CL        142.6648  142.3359  168.6489 Cl      1  UNL1       -0.0822
     32 C         142.9802  142.0875  166.0820 C.ar    1  UNL1        0.0127
     33 C         143.0408  141.2220  164.8584 C.ar    1  UNL1        0.0155
@<TRIPOS>BOND
     1    19    20    1
     2    20    21    1
     3    20    22    1
     4    20     1    1
     5     1     2    2
     6     1     3   am
     7     3     4    1
     8     4     5    1
     9     5     6    1
    10     6     7   ar
    11     7     8   ar
    12     8     9   ar
    13     9    12    1
    14    12    13   ar
    15    13    14   ar
    16    14    15   ar
    17    15    16    1
    18    15    17   ar
    19    17    18   ar
    20     9    10   ar
    21    10    25    1
    22    25    27    1
    23    27    28   ar
    24    28    29   ar
    25    29    30   ar
    26    30    31    1
    27    30    32   ar
    28    32    33   ar
    29     7    11    1
    30    11     3    1
    31    10     6   ar
    32    33    27   ar
    33    18    12   ar
    34    22    23    1
    35    22    24    1
    36    25    26    1
@<TRIPOS>MOLECULE
*****
 33 36 0 0 0
SMALL
GASTEIGER

@<TRIPOS>ATOM
      1 C         140.1243  140.8318  169.6556 C.2     1  UNL1        0.2383
      2 O         138.9962  139.9232  170.0450 O.2     1  UNL1       -0.2735
      3 N         140.4449  141.0510  168.2068 N.am    1  UNL1       -0.2695
      4 C         141.5731  141.9596  167.8174 C.3     1  UNL1        0.1184
      5 C         141.8937  142.1788  166.3686 C.3     1  UNL1        0.1299
      6 N         141.0863  141.4893  165.3091 N.ar    1  UNL1       -0.3005
      7 C         139.9582  140.5806  165.6985 C.ar    1  UNL1        0.1416
      8 N         139.3422  140.0415  164.4415 N.ar    1  UNL1       -0.2279
      9 C         140.0897  140.6170  163.2753 C.ar    1  UNL1        0.1125
     10 C         141.1676  141.5118  163.8115 C.ar    1  UNL1        0.1318
     11 C         139.6375  140.3615  167.1473 C.3     1  UNL1        0.1578
     12 C         139.8087  140.3454  161.8270 C.ar    1  UNL1        0.0205
     13 C         138.7457  141.1243  161.1104 C.ar    1  UNL1        0.0039
     14 C         138.4647  140.8528  159.6623 C.ar    1  UNL1        0.0297
     15 C         139.2465  139.8024  158.9307 C.ar    1  UNL1        0.1401
     16 F         138.9655  139.5308  157.4824 F       1  UNL1       -0.2042
     17 C         140.3095  139.0235  159.6473 C.ar    1  UNL1        0.0297
     18 C         140.5905  139.2950  161.0954 C.ar    1  UNL1        0.0039
     19 C         141.8995  140.3754  170.7234 C.3     1  UNL1        0.0249
     20 C         140.9317  141.5214  170.7151 C.3     1  UNL1        0.1089
     21 C         139.9640  142.6673  170.7068 C.3     1  UNL1        0.0249
     22 N         141.7392  142.2109  171.7747 N.3     1  UNL1       -0.3164
     23 H         141.3018  143.1019  172.0095 H       1  UNL1        0.1192
     24 H         142.6840  142.3768  171.4280 H       1  UNL1        0.1192
     25 N         142.1537  142.2920  162.9937 N.pl3   1  UNL1       -0.2980
     26 H         143.1153  142.2359  163.1969 H       1  UNL1        0.1536
     27 C         141.6746  143.1578  161.8664 C.ar    1  UNL1        0.0494
     28 C         140.7621  144.3153  162.1451 C.ar    1  UNL1        0.0155
     29 C         140.2831  145.1811  161.0177 C.ar    1  UNL1        0.0127
     30 C         140.7166  144.8894  159.6116 C.ar    1  UNL1        0.0578
     31 CL        140.2375  145.7552  158.4843 Cl      1  UNL1       -0.0822
     32 C         141.6290  143.7320  159.3329 C.ar    1  UNL1        0.0127
     33 C         142.1081  142.8662  160.4603 C.ar    1  UNL1        0.0155
@<TRIPOS>BOND
     1    19    20    1
     2    20    21    1
     3    20    22    1
     4    20     1    1
     5     1     2    2
     6     1     3   am
     7     3     4    1
     8     4     5    1
     9     5     6    1
    10     6     7   ar
    11     7     8   ar
    12     8     9   ar
    13     9    12    1
    14    12    13   ar
    15    13    14   ar
    16    14    15   ar
    17    15    16    1
    18    15    17   ar
    19    17    18   ar
    20     9    10   ar
    21    10    25    1
    22    25    27    1
    23    27    28   ar
    24    28    29   ar
    25    29    30   ar
    26    30    31    1
    27    30    32   ar
    28    32    33   ar
    29     7    11    1
    30    11     3    1
    31    10     6   ar
    32    33    27   ar
    33    18    12   ar
    34    22    23    1
    35    22    24    1
    36    25    26    1
@<TRIPOS>MOLECULE
*****
 33 36 0 0 0
SMALL
GASTEIGER

@<TRIPOS>ATOM
      1 C         140.6453  143.9815  157.4961 C.2     1  UNL1        0.2383
      2 O         139.2502  144.3134  157.0560 O.2     1  UNL1       -0.2735
      3 N         140.8661  143.1405  158.7184 N.am    1  UNL1       -0.2695
      4 C         142.2611  142.8086  159.1584 C.3     1  UNL1        0.1184
      5 C         142.4819  141.9676  160.3807 C.3     1  UNL1        0.1299
      6 N         141.3077  141.4586  161.1629 N.ar    1  UNL1       -0.3005
      7 C         139.9127  141.7904  160.7229 C.ar    1  UNL1        0.1416
      8 N         138.9580  141.1517  161.6876 N.ar    1  UNL1       -0.2279
      9 C         139.7631  140.4250  162.7239 C.ar    1  UNL1        0.1125
     10 C         141.2153  140.6147  162.3996 C.ar    1  UNL1        0.1318
     11 C         139.6919  142.6314  159.5006 C.3     1  UNL1        0.1578
     12 C         139.2126  139.6455  163.8813 C.ar    1  UNL1        0.0205
     13 C         138.5919  140.3644  165.0422 C.ar    1  UNL1        0.0039
     14 C         138.0414  139.5850  166.1996 C.ar    1  UNL1        0.0297
     15 C         138.1117  138.0867  166.1959 C.ar    1  UNL1        0.1401
     16 F         137.5613  137.3072  167.3533 F       1  UNL1       -0.2042
     17 C         138.7324  137.3678  165.0349 C.ar    1  UNL1        0.0297
     18 C         139.2829  138.1472  163.8776 C.ar    1  UNL1        0.0039
     19 C         141.8524  145.7244  157.5661 C.3     1  UNL1        0.0249
     20 C         141.8195  144.4906  156.7138 C.3     1  UNL1        0.1089
     21 C         141.7866  143.2567  155.8615 C.3     1  UNL1        0.0249
     22 N         142.9938  144.9997  155.9315 N.3     1  UNL1       -0.3164
     23 H         143.2389  144.3241  155.2077 H       1  UNL1        0.1192
     24 H         143.7884  145.1307  156.5575 H       1  UNL1        0.1192
     25 N         142.3720  140.0582  163.1757 N.pl3   1  UNL1       -0.2980
     26 H         143.0803  139.5563  162.7114 H       1  UNL1        0.1536
     27 C         142.4494  140.2664  164.6591 C.ar    1  UNL1        0.0494
     28 C         142.5209  139.0843  165.5797 C.ar    1  UNL1        0.0155
     29 C         142.5984  139.2926  167.0633 C.ar    1  UNL1        0.0127
     30 C         142.6044  140.6830  167.6261 C.ar    1  UNL1        0.0578
     31 CL        142.6819  140.8912  169.1095 Cl      1  UNL1       -0.0822
     32 C         142.5329  141.8651  166.7055 C.ar    1  UNL1        0.0127
     33 C         142.4555  141.6568  165.2221 C.ar    1  UNL1        0.0155
@<TRIPOS>BOND
     1    19    20    1
     2    20    21    1
     3    20    22    1
     4    20     1    1
     5     1     2    2
     6     1     3   am
     7     3     4    1
     8     4     5    1
     9     5     6    1
    10     6     7   ar
    11     7     8   ar
    12     8     9   ar
    13     9    12    1
    14    12    13   ar
    15    13    14   ar
    16    14    15   ar
    17    15    16    1
    18    15    17   ar
    19    17    18   ar
    20     9    10   ar
    21    10    25    1
    22    25    27    1
    23    27    28   ar
    24    28    29   ar
    25    29    30   ar
    26    30    31    1
    27    30    32   ar
    28    32    33   ar
    29     7    11    1
    30    11     3    1
    31    10     6   ar
    32    33    27   ar
    33    18    12   ar
    34    22    23    1
    35    22    24    1
    36    25    26    1
@<TRIPOS>MOLECULE
*****
 33 36 0 0 0
SMALL
GASTEIGER

@<TRIPOS>ATOM
      1 C         140.6520  140.6965  169.6643 C.2     1  UNL1        0.2383
      2 O         139.4931  139.7927  169.9642 O.2     1  UNL1       -0.2735
      3 N         141.2130  140.7607  168.2746 N.am    1  UNL1       -0.2695
      4 C         142.3720  141.6644  167.9747 C.3     1  UNL1        0.1184
      5 C         142.9330  141.7286  166.5850 C.3     1  UNL1        0.1299
      6 N         142.3350  140.8890  165.4953 N.ar    1  UNL1       -0.3005
      7 C         141.1760  139.9853  165.7952 C.ar    1  UNL1        0.1416
      8 N         140.7975  139.2802  164.5265 N.ar    1  UNL1       -0.2279
      9 C         141.7226  139.7482  163.4424 C.ar    1  UNL1        0.1125
     10 C         142.6728  140.7425  164.0412 C.ar    1  UNL1        0.1318
     11 C         140.6150  139.9211  167.1849 C.3     1  UNL1        0.1578
     12 C         141.7012  139.3006  162.0109 C.ar    1  UNL1        0.0205
     13 C         142.7188  138.3148  161.5181 C.ar    1  UNL1        0.0039
     14 C         142.6975  137.8672  160.0867 C.ar    1  UNL1        0.0297
     15 C         141.6586  138.4052  159.1480 C.ar    1  UNL1        0.1401
     16 F         141.6373  137.9575  157.7165 F       1  UNL1       -0.2042
     17 C         140.6410  139.3909  159.6408 C.ar    1  UNL1        0.0297
     18 C         140.6623  139.8386  161.0722 C.ar    1  UNL1        0.0039
     19 C         142.2834  140.4776  171.0023 C.3     1  UNL1        0.0249
     20 C         141.2500  141.5360  170.7540 C.3     1  UNL1        0.1089
     21 C         140.2165  142.5944  170.5057 C.3     1  UNL1        0.0249
     22 N         141.8480  142.3756  171.8438 N.3     1  UNL1       -0.3164
     23 H         141.3210  143.2445  171.9316 H       1  UNL1        0.1192
     24 H         142.8190  142.5885  171.6150 H       1  UNL1        0.1192
     25 N         143.7684  141.4637  163.3136 N.pl3   1  UNL1       -0.2980
     26 H         144.6729  141.5035  163.7003 H       1  UNL1        0.1536
     27 C         143.4861  142.1243  161.9969 C.ar    1  UNL1        0.0494
     28 C         144.3282  141.7994  160.7989 C.ar    1  UNL1        0.0155
     29 C         144.0457  142.4601  159.4820 C.ar    1  UNL1        0.0127
     30 C         142.9212  143.4456  159.3633 C.ar    1  UNL1        0.0578
     31 CL        142.6388  144.1062  158.0466 Cl      1  UNL1       -0.0822
     32 C         142.0790  143.7705  160.5614 C.ar    1  UNL1        0.0127
     33 C         142.3615  143.1099  161.8781 C.ar    1  UNL1        0.0155
@<TRIPOS>BOND
     1    19    20    1
     2    20    21    1
     3    20    22    1
     4    20     1    1
     5     1     2    2
     6     1     3   am
     7     3     4    1
     8     4     5    1
     9     5     6    1
    10     6     7   ar
    11     7     8   ar
    12     8     9   ar
    13     9    12    1
    14    12    13   ar
    15    13    14   ar
    16    14    15   ar
    17    15    16    1
    18    15    17   ar
    19    17    18   ar
    20     9    10   ar
    21    10    25    1
    22    25    27    1
    23    27    28   ar
    24    28    29   ar
    25    29    30   ar
    26    30    31    1
    27    30    32   ar
    28    32    33   ar
    29     7    11    1
    30    11     3    1
    31    10     6   ar
    32    33    27   ar
    33    18    12   ar
    34    22    23    1
    35    22    24    1
    36    25    26    1
@<TRIPOS>MOLECULE
*****
 33 36 0 0 0
SMALL
GASTEIGER

@<TRIPOS>ATOM
      1 C         141.1475  144.1300  154.7311 C.2     1  UNL1        0.2383
      2 O         141.2900  142.9207  153.8552 O.2     1  UNL1       -0.2735
      3 N         141.5569  144.0644  156.1727 N.am    1  UNL1       -0.2695
      4 C         141.4144  145.2737  157.0485 C.3     1  UNL1        0.1184
      5 C         141.8239  145.2082  158.4901 C.3     1  UNL1        0.1299
      6 N         142.3759  143.9334  159.0557 N.ar    1  UNL1       -0.3005
      7 C         142.5185  142.7241  158.1799 C.ar    1  UNL1        0.1416
      8 N         143.0905  141.6143  159.0113 N.ar    1  UNL1       -0.2279
      9 C         143.3015  142.1378  160.4011 C.ar    1  UNL1        0.1125
     10 C         142.8598  143.5711  160.4285 C.ar    1  UNL1        0.1318
     11 C         142.1090  142.7896  156.7383 C.3     1  UNL1        0.1578
     12 C         143.8567  141.3640  161.5600 C.ar    1  UNL1        0.0205
     13 C         143.2799  140.0250  161.9129 C.ar    1  UNL1        0.0039
     14 C         143.8350  139.2511  163.0718 C.ar    1  UNL1        0.0297
     15 C         144.9669  139.8162  163.8776 C.ar    1  UNL1        0.1401
     16 F         145.5220  139.0424  165.0366 F       1  UNL1       -0.2042
     17 C         145.5436  141.1552  163.5247 C.ar    1  UNL1        0.0297
     18 C         144.9885  141.9290  162.3659 C.ar    1  UNL1        0.0039
     19 C         139.2231  145.0169  154.6306 C.3     1  UNL1        0.0249
     20 C         140.5954  145.4048  154.1655 C.3     1  UNL1        0.1089
     21 C         141.9677  145.7927  153.7004 C.3     1  UNL1        0.0249
     22 N         140.0433  146.6797  153.5998 N.3     1  UNL1       -0.3164
     23 H         140.7979  147.2173  153.1734 H       1  UNL1        0.1192
     24 H         139.6165  147.2267  154.3475 H       1  UNL1        0.1192
     25 N         142.8958  144.4821  161.6196 N.pl3   1  UNL1       -0.2980
     26 H         143.6915  145.0355  161.7922 H       1  UNL1        0.1536
     27 C         141.7194  144.5500  162.5478 C.ar    1  UNL1        0.0494
     28 C         140.4705  145.2651  162.1248 C.ar    1  UNL1        0.0155
     29 C         139.2941  145.3329  163.0531 C.ar    1  UNL1        0.0127
     30 C         139.3666  144.6856  164.4043 C.ar    1  UNL1        0.0578
     31 CL        138.1903  144.7535  165.3324 Cl      1  UNL1       -0.0822
     32 C         140.6155  143.9704  164.8272 C.ar    1  UNL1        0.0127
     33 C         141.7918  143.9026  163.8990 C.ar    1  UNL1        0.0155
@<TRIPOS>BOND
     1    19    20    1
     2    20    21    1
     3    20    22    1
     4    20     1    1
     5     1     2    2
     6     1     3   am
     7     3     4    1
     8     4     5    1
     9     5     6    1
    10     6     7   ar
    11     7     8   ar
    12     8     9   ar
    13     9    12    1
    14    12    13   ar
    15    13    14   ar
    16    14    15   ar
    17    15    16    1
    18    15    17   ar
    19    17    18   ar
    20     9    10   ar
    21    10    25    1
    22    25    27    1
    23    27    28   ar
    24    28    29   ar
    25    29    30   ar
    26    30    31    1
    27    30    32   ar
    28    32    33   ar
    29     7    11    1
    30    11     3    1
    31    10     6   ar
    32    33    27   ar
    33    18    12   ar
    34    22    23    1
    35    22    24    1
    36    25    26    1
