@<TRIPOS>MOLECULE
*****
 32 37 0 0 0
SMALL
GASTEIGER

@<TRIPOS>ATOM
      1 C         140.5275  139.1969  164.9727 C.ar    1  UNL1        0.0351
      2 C         140.9683  137.7698  164.8354 C.ar    1  UNL1        0.0030
      3 C         141.2087  137.1868  163.4744 C.ar    1  UNL1        0.0003
      4 C         141.0083  138.0309  162.2508 C.ar    1  UNL1        0.0063
      5 C         140.5674  139.4580  162.3881 C.ar    1  UNL1        0.0740
      6 C         140.3670  140.3021  161.1645 C.ar    1  UNL1        0.2641
      7 O         140.6074  139.7191  159.8035 O.2     1  UNL1       -0.2669
      8 N         139.9262  141.7293  161.3018 N.ar    1  UNL1       -0.2725
      9 C         139.6857  142.3124  162.6628 C.ar    1  UNL1        0.1999
     10 N         139.8862  141.4683  163.8864 N.ar    1  UNL1       -0.2150
     11 C         140.3270  140.0410  163.7491 C.ar    1  UNL1        0.0901
     12 C         141.5819  143.1290  169.7548 C.3     1  UNL1        0.0237
     13 C         140.5929  142.0211  169.5440 C.3     1  UNL1        0.0985
     14 N         139.5472  141.5746  170.5223 N.am    1  UNL1       -0.3004
     15 C         138.7840  140.4427  169.9007 C.2     1  UNL1        0.2438
     16 O         137.6465  139.6951  170.5309 O.2     1  UNL1       -0.2704
     17 C         139.3581  140.1896  168.5382 C.2     1  UNL1        0.0563
     18 C         139.2413  139.3336  167.3120 C.2     1  UNL1        0.0209
     19 C         140.2870  139.7800  166.3337 C.2     1  UNL1        0.0777
     20 N         141.0502  140.9120  166.9553 N.2     1  UNL1       -0.2660
     21 C         140.4761  141.1651  168.3178 C.3     1  UNL1        0.1476
     22 H         139.3894  141.9573  171.4155 H       1  UNL1        0.1498
     23 C         139.7257  142.5734  160.0781 C.3     1  UNL1        0.0738
     24 C         138.2826  142.2802  159.7929 C.3     1  UNL1        0.0228
     25 C         140.0265  143.5193  158.9536 C.3     1  UNL1        0.0228
     26 C         141.0993  143.1598  159.9383 C.3     1  UNL1        0.0228
     27 N         139.2449  143.7395  162.8001 N.pl3   1  UNL1       -0.3074
     28 H         138.9507  144.2424  162.0065 H       1  UNL1        0.1495
     29 C         139.2523  144.4005  164.1466 C.3     1  UNL1        0.0570
     30 C         140.6757  144.8707  164.1980 C.3     1  UNL1        0.0196
     31 C         138.7654  144.8983  165.4752 C.3     1  UNL1        0.0196
     32 C         137.8314  144.1599  164.5627 C.3     1  UNL1        0.0196
@<TRIPOS>BOND
     1    13    12    1
     2    13    14    1
     3    14    15   am
     4    15    16    2
     5    15    17    1
     6    17    18    2
     7    18    19    1
     8    19     1    1
     9     1     2   ar
    10     2     3   ar
    11     3     4   ar
    12     4     5   ar
    13     5     6   ar
    14     6     7    2
    15     6     8   ar
    16     8    23    1
    17    23    24    1
    18    23    25    1
    19    25    26    1
    20     8     9   ar
    21     9    27    1
    22    27    29    1
    23    29    30    1
    24    29    31    1
    25    31    32    1
    26     9    10   ar
    27    10    11   ar
    28    19    20    2
    29    20    21    1
    30    21    13    1
    31    21    17    1
    32    11     1   ar
    33    11     5   ar
    34    26    23    1
    35    32    29    1
    36    14    22    1
    37    27    28    1
@<TRIPOS>MOLECULE
*****
 32 37 0 0 0
SMALL
GASTEIGER

@<TRIPOS>ATOM
      1 C         140.1541  139.8715  166.4314 C.ar    1  UNL1        0.0351
      2 C         138.9284  139.0655  166.7443 C.ar    1  UNL1        0.0030
      3 C         138.4017  138.0817  165.7419 C.ar    1  UNL1        0.0003
      4 C         139.1007  137.9039  164.4267 C.ar    1  UNL1        0.0063
      5 C         140.3265  138.7099  164.1139 C.ar    1  UNL1        0.0740
      6 C         141.0255  138.5321  162.7987 C.ar    1  UNL1        0.2641
      7 O         140.4988  137.5483  161.7964 O.2     1  UNL1       -0.2669
      8 N         142.2512  139.3381  162.4858 N.ar    1  UNL1       -0.2725
      9 C         142.7780  140.3219  163.4882 C.ar    1  UNL1        0.1999
     10 N         142.0790  140.4997  164.8034 N.ar    1  UNL1       -0.2150
     11 C         140.8532  139.6937  165.1162 C.ar    1  UNL1        0.0901
     12 C         144.5240  142.4477  170.1340 C.3     1  UNL1        0.0237
     13 C         143.0813  142.7711  169.8811 C.3     1  UNL1        0.0985
     14 N         142.3022  143.8831  170.5186 N.am    1  UNL1       -0.3004
     15 C         140.9038  143.8386  169.9777 C.2     1  UNL1        0.2438
     16 O         139.7866  144.7701  170.3443 O.2     1  UNL1       -0.2704
     17 C         140.8186  142.6991  169.0060 C.2     1  UNL1        0.0563
     18 C         139.9018  141.9673  168.0712 C.2     1  UNL1        0.0209
     19 C         140.6809  140.8553  167.4338 C.2     1  UNL1        0.0777
     20 N         142.0793  140.8998  167.9746 N.2     1  UNL1       -0.2660
     21 C         142.1645  142.0394  168.9463 C.3     1  UNL1        0.1476
     22 H         142.6479  144.5288  171.1764 H       1  UNL1        0.1498
     23 C         142.9502  139.1602  161.1706 C.3     1  UNL1        0.0738
     24 C         143.9235  138.0793  161.5369 C.3     1  UNL1        0.0228
     25 C         143.3113  139.3578  159.7282 C.3     1  UNL1        0.0228
     26 C         142.2198  140.1795  160.3475 C.3     1  UNL1        0.0228
     27 N         144.0037  141.1279  163.1753 N.pl3   1  UNL1       -0.3074
     28 H         144.8055  140.6847  162.8149 H       1  UNL1        0.1495
     29 C         144.0078  142.6092  163.4115 C.3     1  UNL1        0.0570
     30 C         144.8418  142.6720  164.6567 C.3     1  UNL1        0.0196
     31 C         143.7223  144.0687  163.2154 C.3     1  UNL1        0.0196
     32 C         143.1753  143.0607  162.2484 C.3     1  UNL1        0.0196
@<TRIPOS>BOND
     1    13    12    1
     2    13    14    1
     3    14    15   am
     4    15    16    2
     5    15    17    1
     6    17    18    2
     7    18    19    1
     8    19     1    1
     9     1     2   ar
    10     2     3   ar
    11     3     4   ar
    12     4     5   ar
    13     5     6   ar
    14     6     7    2
    15     6     8   ar
    16     8    23    1
    17    23    24    1
    18    23    25    1
    19    25    26    1
    20     8     9   ar
    21     9    27    1
    22    27    29    1
    23    29    30    1
    24    29    31    1
    25    31    32    1
    26     9    10   ar
    27    10    11   ar
    28    19    20    2
    29    20    21    1
    30    21    13    1
    31    21    17    1
    32    11     1   ar
    33    11     5   ar
    34    26    23    1
    35    32    29    1
    36    14    22    1
    37    27    28    1
@<TRIPOS>MOLECULE
*****
 32 37 0 0 0
SMALL
GASTEIGER

@<TRIPOS>ATOM
      1 C         142.8181  142.4098  165.8629 C.ar    1  UNL1        0.0351
      2 C         144.0417  143.2457  165.6306 C.ar    1  UNL1        0.0030
      3 C         144.3156  143.8120  164.2689 C.ar    1  UNL1        0.0003
      4 C         143.3659  143.5424  163.1396 C.ar    1  UNL1        0.0063
      5 C         142.1423  142.7065  163.3719 C.ar    1  UNL1        0.0740
      6 C         141.1926  142.4368  162.2426 C.ar    1  UNL1        0.2641
      7 O         141.4665  143.0031  160.8809 O.2     1  UNL1       -0.2669
      8 N         139.9690  141.6009  162.4750 N.ar    1  UNL1       -0.2725
      9 C         139.6951  141.0346  163.8367 C.ar    1  UNL1        0.1999
     10 N         140.6448  141.3042  164.9661 N.ar    1  UNL1       -0.2150
     11 C         141.8684  142.1402  164.7336 C.ar    1  UNL1        0.0901
     12 C         142.9752  138.0102  170.3418 C.3     1  UNL1        0.0237
     13 C         142.4127  139.4000  170.2961 C.3     1  UNL1        0.0985
     14 N         141.7012  140.1004  171.4156 N.am    1  UNL1       -0.3004
     15 C         141.3117  141.4667  170.9342 C.2     1  UNL1        0.2438
     16 O         140.5799  142.5064  171.7300 O.2     1  UNL1       -0.2704
     17 C         141.7824  141.6106  169.5173 C.2     1  UNL1        0.0563
     18 C         141.8327  142.5439  168.3441 C.2     1  UNL1        0.0209
     19 C         142.5442  141.8435  167.2247 C.2     1  UNL1        0.0777
     20 N         142.9337  140.4772  167.7060 N.2     1  UNL1       -0.2660
     21 C         142.4629  140.3333  169.1230 C.3     1  UNL1        0.1476
     22 H         141.5214  139.7287  172.3093 H       1  UNL1        0.1498
     23 C         139.0193  141.3313  161.3456 C.3     1  UNL1        0.0738
     24 C         138.0995  142.5070  161.4925 C.3     1  UNL1        0.0228
     25 C         138.3891  140.6533  160.1654 C.3     1  UNL1        0.0228
     26 C         139.6093  140.0619  160.8066 C.3     1  UNL1        0.0228
     27 N         138.4715  140.1987  164.0691 N.pl3   1  UNL1       -0.3074
     28 H         137.5974  140.5012  163.7320 H       1  UNL1        0.1495
     29 C         138.5797  138.9018  164.8151 C.3     1  UNL1        0.0570
     30 C         138.1000  139.3386  166.1676 C.3     1  UNL1        0.0196
     31 C         138.8545  137.4533  165.0915 C.3     1  UNL1        0.0196
     32 C         139.0970  138.0147  163.7217 C.3     1  UNL1        0.0196
@<TRIPOS>BOND
     1    13    12    1
     2    13    14    1
     3    14    15   am
     4    15    16    2
     5    15    17    1
     6    17    18    2
     7    18    19    1
     8    19     1    1
     9     1     2   ar
    10     2     3   ar
    11     3     4   ar
    12     4     5   ar
    13     5     6   ar
    14     6     7    2
    15     6     8   ar
    16     8    23    1
    17    23    24    1
    18    23    25    1
    19    25    26    1
    20     8     9   ar
    21     9    27    1
    22    27    29    1
    23    29    30    1
    24    29    31    1
    25    31    32    1
    26     9    10   ar
    27    10    11   ar
    28    19    20    2
    29    20    21    1
    30    21    13    1
    31    21    17    1
    32    11     1   ar
    33    11     5   ar
    34    26    23    1
    35    32    29    1
    36    14    22    1
    37    27    28    1
@<TRIPOS>MOLECULE
*****
 32 37 0 0 0
SMALL
GASTEIGER

@<TRIPOS>ATOM
      1 C         142.9596  140.8858  165.2667 C.ar    1  UNL1        0.0351
      2 C         144.0256  139.8405  165.1222 C.ar    1  UNL1        0.0030
      3 C         144.5288  139.4659  163.7597 C.ar    1  UNL1        0.0003
      4 C         143.9661  140.1367  162.5418 C.ar    1  UNL1        0.0063
      5 C         142.9002  141.1821  162.6863 C.ar    1  UNL1        0.0740
      6 C         142.3375  141.8529  161.4684 C.ar    1  UNL1        0.2641
      7 O         142.8407  141.4784  160.1059 O.2     1  UNL1       -0.2669
      8 N         141.2715  142.8983  161.6129 N.ar    1  UNL1       -0.2725
      9 C         140.7682  143.2729  162.9755 C.ar    1  UNL1        0.1999
     10 N         141.3309  142.6021  164.1934 N.ar    1  UNL1       -0.2150
     11 C         142.3969  141.5566  164.0488 C.ar    1  UNL1        0.0901
     12 C         138.9539  140.7372  170.1014 C.3     1  UNL1        0.0237
     13 C         140.2408  141.4707  169.8648 C.3     1  UNL1        0.0985
     14 N         140.9073  142.4132  170.8226 N.am    1  UNL1       -0.3004
     15 C         142.1655  142.9155  170.1786 C.2     1  UNL1        0.2438
     16 O         143.1413  143.8805  170.7841 O.2     1  UNL1       -0.2704
     17 C         142.2766  142.2833  168.8229 C.2     1  UNL1        0.0563
     18 C         143.1229  142.2030  167.5870 C.2     1  UNL1        0.0209
     19 C         142.4563  141.2604  166.6293 C.2     1  UNL1        0.0777
     20 N         141.1981  140.7582  167.2732 N.2     1  UNL1       -0.2660
     21 C         141.0870  141.3904  168.6290 C.3     1  UNL1        0.1476
     22 H         140.5770  142.6591  171.7168 H       1  UNL1        0.1498
     23 C         140.7088  143.5691  160.3950 C.3     1  UNL1        0.0738
     24 C         141.5987  144.7747  160.3271 C.3     1  UNL1        0.0228
     25 C         139.8371  143.8212  159.2006 C.3     1  UNL1        0.0228
     26 C         139.6236  142.5964  160.0398 C.3     1  UNL1        0.0228
     27 N         139.7023  144.3183  163.1200 N.pl3   1  UNL1       -0.3074
     28 H         139.7923  145.1808  162.6540 H       1  UNL1        0.1495
     29 C         138.4991  144.0494  163.9745 C.3     1  UNL1        0.0570
     30 C         137.7510  143.1050  163.0811 C.3     1  UNL1        0.0196
     31 C         137.5558  144.1086  165.1393 C.3     1  UNL1        0.0196
     32 C         138.8295  144.9006  165.1646 C.3     1  UNL1        0.0196
@<TRIPOS>BOND
     1    13    12    1
     2    13    14    1
     3    14    15   am
     4    15    16    2
     5    15    17    1
     6    17    18    2
     7    18    19    1
     8    19     1    1
     9     1     2   ar
    10     2     3   ar
    11     3     4   ar
    12     4     5   ar
    13     5     6   ar
    14     6     7    2
    15     6     8   ar
    16     8    23    1
    17    23    24    1
    18    23    25    1
    19    25    26    1
    20     8     9   ar
    21     9    27    1
    22    27    29    1
    23    29    30    1
    24    29    31    1
    25    31    32    1
    26     9    10   ar
    27    10    11   ar
    28    19    20    2
    29    20    21    1
    30    21    13    1
    31    21    17    1
    32    11     1   ar
    33    11     5   ar
    34    26    23    1
    35    32    29    1
    36    14    22    1
    37    27    28    1
@<TRIPOS>MOLECULE
*****
 32 37 0 0 0
SMALL
GASTEIGER

@<TRIPOS>ATOM
      1 C         139.8556  139.2250  164.9096 C.ar    1  UNL1        0.0351
      2 C         139.3111  137.9070  164.4447 C.ar    1  UNL1        0.0030
      3 C         139.2129  137.6117  162.9774 C.ar    1  UNL1        0.0003
      4 C         139.6592  138.6344  161.9750 C.ar    1  UNL1        0.0063
      5 C         140.2037  139.9525  162.4399 C.ar    1  UNL1        0.0740
      6 C         140.6500  140.9752  161.4375 C.ar    1  UNL1        0.2641
      7 O         140.5518  140.6799  159.9702 O.2     1  UNL1       -0.2669
      8 N         141.1945  142.2933  161.9024 N.ar    1  UNL1       -0.2725
      9 C         141.2927  142.5886  163.3698 C.ar    1  UNL1        0.1999
     10 N         140.8464  141.5659  164.3722 N.ar    1  UNL1       -0.2150
     11 C         140.3019  140.2478  163.9072 C.ar    1  UNL1        0.0901
     12 C         142.8591  140.4592  170.2853 C.3     1  UNL1        0.0237
     13 C         141.4075  140.3074  169.9393 C.3     1  UNL1        0.0985
     14 N         140.2563  140.4294  170.8931 N.am    1  UNL1       -0.3004
     15 C         138.9896  140.2043  170.1219 C.2     1  UNL1        0.2438
     16 O         137.5987  140.2349  170.6827 O.2     1  UNL1       -0.2704
     17 C         139.3579  139.9431  168.6915 C.2     1  UNL1        0.0563
     18 C         138.8026  139.6425  167.3309 C.2     1  UNL1        0.0209
     19 C         139.9539  139.5204  166.3770 C.2     1  UNL1        0.0777
     20 N         141.2206  139.7456  167.1482 N.2     1  UNL1       -0.2660
     21 C         140.8523  140.0068  168.5786 C.3     1  UNL1        0.1476
     22 H         140.3208  140.6233  171.8561 H       1  UNL1        0.1498
     23 C         141.6407  143.3160  160.9000 C.3     1  UNL1        0.0738
     24 C         143.0639  142.8846  160.7036 C.3     1  UNL1        0.0228
     25 C         141.5928  144.4886  159.9658 C.3     1  UNL1        0.0228
     26 C         140.3726  144.1027  160.7483 C.3     1  UNL1        0.0228
     27 N         141.8372  143.9067  163.8347 N.pl3   1  UNL1       -0.3074
     28 H         141.2635  144.7067  163.8268 H       1  UNL1        0.1495
     29 C         143.2559  144.0059  164.3119 C.3     1  UNL1        0.0570
     30 C         143.7421  145.1333  163.4502 C.3     1  UNL1        0.0196
     31 C         144.5056  143.7136  165.0882 C.3     1  UNL1        0.0196
     32 C         143.2622  142.9129  165.3392 C.3     1  UNL1        0.0196
@<TRIPOS>BOND
     1    13    12    1
     2    13    14    1
     3    14    15   am
     4    15    16    2
     5    15    17    1
     6    17    18    2
     7    18    19    1
     8    19     1    1
     9     1     2   ar
    10     2     3   ar
    11     3     4   ar
    12     4     5   ar
    13     5     6   ar
    14     6     7    2
    15     6     8   ar
    16     8    23    1
    17    23    24    1
    18    23    25    1
    19    25    26    1
    20     8     9   ar
    21     9    27    1
    22    27    29    1
    23    29    30    1
    24    29    31    1
    25    31    32    1
    26     9    10   ar
    27    10    11   ar
    28    19    20    2
    29    20    21    1
    30    21    13    1
    31    21    17    1
    32    11     1   ar
    33    11     5   ar
    34    26    23    1
    35    32    29    1
    36    14    22    1
    37    27    28    1
@<TRIPOS>MOLECULE
*****
 32 37 0 0 0
SMALL
GASTEIGER

@<TRIPOS>ATOM
      1 C         142.8905  142.0255  165.5142 C.ar    1  UNL1        0.0351
      2 C         143.5916  143.3503  165.5721 C.ar    1  UNL1        0.0030
      3 C         144.1075  143.9815  164.3130 C.ar    1  UNL1        0.0003
      4 C         143.9224  143.2878  162.9960 C.ar    1  UNL1        0.0063
      5 C         143.2214  141.9630  162.9381 C.ar    1  UNL1        0.0740
      6 C         143.0363  141.2694  161.6210 C.ar    1  UNL1        0.2641
      7 O         143.5522  141.9005  160.3619 O.2     1  UNL1       -0.2669
      8 N         142.3352  139.9446  161.5631 N.ar    1  UNL1       -0.2725
      9 C         141.8193  139.3133  162.8223 C.ar    1  UNL1        0.1999
     10 N         142.0044  140.0070  164.1393 N.ar    1  UNL1       -0.2150
     11 C         142.7054  141.3319  164.1972 C.ar    1  UNL1        0.0901
     12 C         143.0270  138.0238  170.3525 C.3     1  UNL1        0.0237
     13 C         142.0536  139.0854  169.9337 C.3     1  UNL1        0.0985
     14 N         140.7867  139.4516  170.6485 N.am    1  UNL1       -0.3004
     15 C         140.1264  140.5598  169.8832 C.2     1  UNL1        0.2438
     16 O         138.8342  141.2314  170.2425 O.2     1  UNL1       -0.2704
     17 C         140.9851  140.8786  168.6953 C.2     1  UNL1        0.0563
     18 C         141.1077  141.7605  167.4882 C.2     1  UNL1        0.0209
     19 C         142.3746  141.3943  166.7734 C.2     1  UNL1        0.0777
     20 N         143.0349  140.2861  167.5387 N.2     1  UNL1       -0.2660
     21 C         142.1762  139.9673  168.7266 C.3     1  UNL1        0.1476
     22 H         140.4481  139.0373  171.4749 H       1  UNL1        0.1498
     23 C         142.1501  139.2509  160.2461 C.3     1  UNL1        0.0738
     24 C         140.8409  139.8461  159.8199 C.3     1  UNL1        0.0228
     25 C         142.4197  138.3506  159.0771 C.3     1  UNL1        0.0228
     26 C         143.3951  138.4148  160.2148 C.3     1  UNL1        0.0228
     27 N         141.1182  137.9885  162.7643 N.pl3   1  UNL1       -0.3074
     28 H         141.5062  137.2487  162.2434 H       1  UNL1        0.1495
     29 C         139.8261  137.7909  163.5002 C.3     1  UNL1        0.0570
     30 C         138.8515  138.0859  162.3989 C.3     1  UNL1        0.0196
     31 C         138.8725  137.4908  164.6185 C.3     1  UNL1        0.0196
     32 C         140.3521  137.4272  164.8571 C.3     1  UNL1        0.0196
@<TRIPOS>BOND
     1    13    12    1
     2    13    14    1
     3    14    15   am
     4    15    16    2
     5    15    17    1
     6    17    18    2
     7    18    19    1
     8    19     1    1
     9     1     2   ar
    10     2     3   ar
    11     3     4   ar
    12     4     5   ar
    13     5     6   ar
    14     6     7    2
    15     6     8   ar
    16     8    23    1
    17    23    24    1
    18    23    25    1
    19    25    26    1
    20     8     9   ar
    21     9    27    1
    22    27    29    1
    23    29    30    1
    24    29    31    1
    25    31    32    1
    26     9    10   ar
    27    10    11   ar
    28    19    20    2
    29    20    21    1
    30    21    13    1
    31    21    17    1
    32    11     1   ar
    33    11     5   ar
    34    26    23    1
    35    32    29    1
    36    14    22    1
    37    27    28    1
@<TRIPOS>MOLECULE
*****
 32 37 0 0 0
SMALL
GASTEIGER

@<TRIPOS>ATOM
      1 C         140.3241  139.4833  165.4080 C.ar    1  UNL1        0.0351
      2 C         139.3165  138.3723  165.4234 C.ar    1  UNL1        0.0030
      3 C         138.8694  137.7474  164.1352 C.ar    1  UNL1        0.0003
      4 C         139.4300  138.2335  162.8315 C.ar    1  UNL1        0.0063
      5 C         140.4377  139.3445  162.8161 C.ar    1  UNL1        0.0740
      6 C         140.9983  139.8306  161.5125 C.ar    1  UNL1        0.2641
      7 O         140.5512  139.2057  160.2243 O.2     1  UNL1       -0.2669
      8 N         142.0059  140.9416  161.4971 N.ar    1  UNL1       -0.2725
      9 C         142.4530  141.5665  162.7854 C.ar    1  UNL1        0.1999
     10 N         141.8924  141.0805  164.0890 N.ar    1  UNL1       -0.2150
     11 C         140.8847  139.9694  164.1044 C.ar    1  UNL1        0.0901
     12 C         140.4437  143.9242  169.8472 C.3     1  UNL1        0.0237
     13 C         141.1587  142.6144  169.6948 C.3     1  UNL1        0.0985
     14 N         142.1472  142.0318  170.6610 N.am    1  UNL1       -0.3004
     15 C         142.6101  140.7145  170.1128 C.2     1  UNL1        0.2438
     16 O         143.6014  139.7910  170.7565 O.2     1  UNL1       -0.2704
     17 C         141.9077  140.4830  168.8078 C.2     1  UNL1        0.0563
     18 C         141.7597  139.5258  167.6624 C.2     1  UNL1        0.0209
     19 C         140.7712  140.1083  166.6963 C.2     1  UNL1        0.0777
     20 N         140.3083  141.4256  167.2445 N.2     1  UNL1       -0.2660
     21 C         141.0107  141.6572  168.5495 C.3     1  UNL1        0.1476
     22 H         142.4406  142.4420  171.5065 H       1  UNL1        0.1498
     23 C         142.5665  141.4276  160.1935 C.3     1  UNL1        0.0738
     24 C         141.5786  142.5097  159.8724 C.3     1  UNL1        0.0228
     25 C         143.4702  141.5379  159.0014 C.3     1  UNL1        0.0228
     26 C         143.7491  140.5144  160.0618 C.3     1  UNL1        0.0228
     27 N         143.4607  142.6775  162.7700 N.pl3   1  UNL1       -0.3074
     28 H         143.8720  142.9573  161.9204 H       1  UNL1        0.1495
     29 C         143.8418  143.3622  164.0491 C.3     1  UNL1        0.0570
     30 C         142.8487  144.4864  164.0485 C.3     1  UNL1        0.0196
     31 C         144.5677  143.6565  165.3283 C.3     1  UNL1        0.0196
     32 C         144.9671  142.4758  164.4937 C.3     1  UNL1        0.0196
@<TRIPOS>BOND
     1    13    12    1
     2    13    14    1
     3    14    15   am
     4    15    16    2
     5    15    17    1
     6    17    18    2
     7    18    19    1
     8    19     1    1
     9     1     2   ar
    10     2     3   ar
    11     3     4   ar
    12     4     5   ar
    13     5     6   ar
    14     6     7    2
    15     6     8   ar
    16     8    23    1
    17    23    24    1
    18    23    25    1
    19    25    26    1
    20     8     9   ar
    21     9    27    1
    22    27    29    1
    23    29    30    1
    24    29    31    1
    25    31    32    1
    26     9    10   ar
    27    10    11   ar
    28    19    20    2
    29    20    21    1
    30    21    13    1
    31    21    17    1
    32    11     1   ar
    33    11     5   ar
    34    26    23    1
    35    32    29    1
    36    14    22    1
    37    27    28    1
@<TRIPOS>MOLECULE
*****
 32 37 0 0 0
SMALL
GASTEIGER

@<TRIPOS>ATOM
      1 C         139.3733  141.3298  164.8677 C.ar    1  UNL1        0.0351
      2 C         137.9782  141.8616  164.7237 C.ar    1  UNL1        0.0030
      3 C         137.3594  141.9852  163.3629 C.ar    1  UNL1        0.0003
      4 C         138.1358  141.5769  162.1461 C.ar    1  UNL1        0.0063
      5 C         139.5309  141.0451  162.2901 C.ar    1  UNL1        0.0740
      6 C         140.3073  140.6368  161.0733 C.ar    1  UNL1        0.2641
      7 O         139.6885  140.7604  159.7125 O.2     1  UNL1       -0.2669
      8 N         141.7024  140.1050  161.2173 N.ar    1  UNL1       -0.2725
      9 C         142.3212  139.9814  162.5782 C.ar    1  UNL1        0.1999
     10 N         141.5448  140.3896  163.7950 N.ar    1  UNL1       -0.2150
     11 C         140.1496  140.9215  163.6509 C.ar    1  UNL1        0.0901
     12 C         143.7207  142.4079  169.2700 C.3     1  UNL1        0.0237
     13 C         142.4506  141.6098  169.2641 C.3     1  UNL1        0.0985
     14 N         141.8967  140.8258  170.4167 N.am    1  UNL1       -0.3004
     15 C         140.6152  140.1871  169.9695 C.2     1  UNL1        0.2438
     16 O         139.7276  139.3126  170.8047 O.2     1  UNL1       -0.2704
     17 C         140.3772  140.5763  168.5406 C.2     1  UNL1        0.0563
     18 C         139.4381  140.4221  167.3811 C.2     1  UNL1        0.0209
     19 C         139.9921  141.2062  166.2286 C.2     1  UNL1        0.0777
     20 N         141.2735  141.8449  166.6757 N.2     1  UNL1       -0.2660
     21 C         141.5116  141.4556  168.1047 C.3     1  UNL1        0.1476
     22 H         142.3028  140.7447  171.3098 H       1  UNL1        0.1498
     23 C         142.4787  139.6967  160.0005 C.3     1  UNL1        0.0738
     24 C         143.0840  141.0162  159.6229 C.3     1  UNL1        0.0228
     25 C         143.0449  138.8303  158.9149 C.3     1  UNL1        0.0228
     26 C         142.1431  138.2355  159.9555 C.3     1  UNL1        0.0228
     27 N         143.7163  139.4495  162.7222 N.pl3   1  UNL1       -0.3074
     28 H         143.9655  138.5990  162.2936 H       1  UNL1        0.1495
     29 C         144.7317  140.2136  163.5192 C.3     1  UNL1        0.0570
     30 C         144.9218  139.2712  164.6706 C.3     1  UNL1        0.0196
     31 C         145.6811  141.3049  163.9164 C.3     1  UNL1        0.0196
     32 C         144.8941  141.4213  162.6446 C.3     1  UNL1        0.0196
@<TRIPOS>BOND
     1    13    12    1
     2    13    14    1
     3    14    15   am
     4    15    16    2
     5    15    17    1
     6    17    18    2
     7    18    19    1
     8    19     1    1
     9     1     2   ar
    10     2     3   ar
    11     3     4   ar
    12     4     5   ar
    13     5     6   ar
    14     6     7    2
    15     6     8   ar
    16     8    23    1
    17    23    24    1
    18    23    25    1
    19    25    26    1
    20     8     9   ar
    21     9    27    1
    22    27    29    1
    23    29    30    1
    24    29    31    1
    25    31    32    1
    26     9    10   ar
    27    10    11   ar
    28    19    20    2
    29    20    21    1
    30    21    13    1
    31    21    17    1
    32    11     1   ar
    33    11     5   ar
    34    26    23    1
    35    32    29    1
    36    14    22    1
    37    27    28    1
@<TRIPOS>MOLECULE
*****
 32 37 0 0 0
SMALL
GASTEIGER

@<TRIPOS>ATOM
      1 C         140.0690  143.5580  163.6628 C.ar    1  UNL1        0.0351
      2 C         139.3270  144.8615  163.6493 C.ar    1  UNL1        0.0030
      3 C         139.4775  145.7982  162.4875 C.ar    1  UNL1        0.0003
      4 C         140.3701  145.4313  161.3391 C.ar    1  UNL1        0.0063
      5 C         141.1122  144.1279  161.3526 C.ar    1  UNL1        0.0740
      6 C         142.0048  143.7610  160.2043 C.ar    1  UNL1        0.2641
      7 O         142.1553  144.6977  159.0424 O.2     1  UNL1       -0.2669
      8 N         142.7468  142.4575  160.2178 N.ar    1  UNL1       -0.2725
      9 C         142.5963  141.5208  161.3797 C.ar    1  UNL1        0.1999
     10 N         141.7037  141.8876  162.5280 N.ar    1  UNL1       -0.2150
     11 C         140.9616  143.1912  162.5145 C.ar    1  UNL1        0.0901
     12 C         137.9322  138.4478  166.6228 C.3     1  UNL1        0.0237
     13 C         138.8243  139.5757  167.0494 C.3     1  UNL1        0.0985
     14 N         139.4552  139.7383  168.4005 N.am    1  UNL1       -0.3004
     15 C         140.2630  141.0021  168.3858 C.2     1  UNL1        0.2438
     16 O         141.0621  141.5511  169.5304 O.2     1  UNL1       -0.2704
     17 C         140.1314  141.6206  167.0256 C.2     1  UNL1        0.0563
     18 C         140.5493  142.7839  166.1759 C.2     1  UNL1        0.0209
     19 C         139.9185  142.6213  164.8247 C.2     1  UNL1        0.0777
     20 N         139.1107  141.3574  164.8394 N.2     1  UNL1       -0.2660
     21 C         139.2422  140.7390  166.1996 C.3     1  UNL1        0.1476
     22 H         139.3564  139.1235  169.1630 H       1  UNL1        0.1498
     23 C         143.6394  142.0907  159.0694 C.3     1  UNL1        0.0738
     24 C         142.6555  141.3732  158.1936 C.3     1  UNL1        0.0228
     25 C         144.8737  141.9731  158.2253 C.3     1  UNL1        0.0228
     26 C         144.9333  142.6808  159.5464 C.3     1  UNL1        0.0228
     27 N         143.3383  140.2173  161.3932 N.pl3   1  UNL1       -0.3074
     28 H         143.4099  139.6831  160.5693 H       1  UNL1        0.1495
     29 C         143.9714  139.7277  162.6619 C.3     1  UNL1        0.0570
     30 C         143.1776  138.4742  162.8821 C.3     1  UNL1        0.0196
     31 C         144.8800  139.6735  163.8542 C.3     1  UNL1        0.0196
     32 C         144.9849  140.8113  162.8822 C.3     1  UNL1        0.0196
@<TRIPOS>BOND
     1    13    12    1
     2    13    14    1
     3    14    15   am
     4    15    16    2
     5    15    17    1
     6    17    18    2
     7    18    19    1
     8    19     1    1
     9     1     2   ar
    10     2     3   ar
    11     3     4   ar
    12     4     5   ar
    13     5     6   ar
    14     6     7    2
    15     6     8   ar
    16     8    23    1
    17    23    24    1
    18    23    25    1
    19    25    26    1
    20     8     9   ar
    21     9    27    1
    22    27    29    1
    23    29    30    1
    24    29    31    1
    25    31    32    1
    26     9    10   ar
    27    10    11   ar
    28    19    20    2
    29    20    21    1
    30    21    13    1
    31    21    17    1
    32    11     1   ar
    33    11     5   ar
    34    26    23    1
    35    32    29    1
    36    14    22    1
    37    27    28    1
