@<TRIPOS>MOLECULE
*****
 38 43 0 0 0
SMALL
GASTEIGER

@<TRIPOS>ATOM
      1 C         141.7899  138.3327  159.8137 C.3     1  UNL1        0.0930
      2 C         140.9314  139.5113  159.4615 C.3     1  UNL1        0.0427
      3 C         140.2728  139.9972  160.7185 C.3     1  UNL1        0.0927
      4 N         140.7241  139.1189  161.8476 N.pl3   1  UNL1       -0.3033
      5 C         141.6617  138.0902  161.2885 C.3     1  UNL1        0.1104
      6 C         140.3105  139.2469  163.2838 C.ar    1  UNL1        0.0878
      7 C         139.2047  138.3901  163.8250 C.ar    1  UNL1        0.1543
      8 F         138.5124  137.4052  162.9301 F       1  UNL1       -0.2028
      9 C         138.7911  138.5180  165.2612 C.ar    1  UNL1        0.0356
     10 C         139.4833  139.5029  166.1561 C.ar    1  UNL1        0.0580
     11 C         139.0697  139.6308  167.5923 C.ar    1  UNL1        0.1996
     12 O         137.9639  138.7740  168.1335 O.2     1  UNL1       -0.2864
     13 C         139.7619  140.6156  168.4872 C.ar    1  UNL1        0.0701
     14 C         140.8678  141.4725  167.9460 C.ar    1  UNL1        0.0801
     15 N         141.2814  141.3445  166.5098 N.ar    1  UNL1       -0.3270
     16 C         140.5892  140.3597  165.6149 C.ar    1  UNL1        0.0750
     17 C         141.0027  140.2317  164.1788 C.ar    1  UNL1        0.0890
     18 CL        142.1086  141.0886  163.6375 Cl      1  UNL1       -0.0794
     19 C         139.3484  140.7436  169.9234 C.2     1  UNL1        0.0774
     20 O         138.9645  142.0839  170.4767 O.co2   1  UNL1       -0.5444
     21 O         139.3186  139.5313  170.8062 O.co2   1  UNL1       -0.5444
     22 C         142.3872  142.2014  165.9687 C.3     1  UNL1        0.0857
     23 C         143.8489  142.5204  165.8600 C.3     1  UNL1        0.0245
     24 C         142.8410  143.3664  165.1400 C.3     1  UNL1        0.0245
     25 O         140.6502  137.4681  157.1767 O.2     1  UNL1       -0.2730
     26 C         142.0593  137.1041  157.5404 C.2     1  UNL1        0.2456
     27 N         142.6291  137.5364  158.8589 N.am    1  UNL1       -0.3026
     28 H         143.5538  137.2975  159.0976 H       1  UNL1        0.1495
     29 C         142.8985  136.3078  156.5856 C.3     1  UNL1        0.1929
     30 N         142.5080  134.9023  156.2363 N.ar    1  UNL1       -0.3004
     31 C         141.3713  134.4988  155.3446 C.ar    1  UNL1        0.1789
     32 N         141.3464  133.0006  155.2746 N.ar    1  UNL1       -0.2239
     33 C         142.4677  132.4783  156.1229 C.ar    1  UNL1        0.0988
     34 C         142.9278  131.0842  156.4310 C.ar    1  UNL1        0.0206
     35 C         144.1058  130.8654  157.3335 C.ar    1  UNL1        0.0016
     36 C         144.8237  132.0408  157.9279 C.ar    1  UNL1        0.0016
     37 C         144.3636  133.4348  157.6198 C.ar    1  UNL1        0.0188
     38 C         143.1856  133.6535  156.7173 C.ar    1  UNL1        0.0793
@<TRIPOS>UNITY_ATOM_ATTR
20 1
charge -1
@<TRIPOS>BOND
     1    25    26    2
     2    26    29    1
     3    29    30    1
     4    30    31   ar
     5    31    32   ar
     6    32    33   ar
     7    33    34   ar
     8    34    35   ar
     9    35    36   ar
    10    36    37   ar
    11    37    38   ar
    12    26    27   am
    13    27     1    1
    14     1     2    1
    15     2     3    1
    16     3     4    1
    17     4     6    1
    18     6     7   ar
    19     7     8    1
    20     7     9   ar
    21     9    10   ar
    22    10    11   ar
    23    11    12    2
    24    11    13   ar
    25    13    19    1
    26    19    20   ar
    27    19    21   ar
    28    13    14   ar
    29    14    15   ar
    30    15    22    1
    31    22    23    1
    32    23    24    1
    33    15    16   ar
    34    16    17   ar
    35    17    18    1
    36     4     5    1
    37    38    30   ar
    38     5     1    1
    39    38    33   ar
    40    17     6   ar
    41    16    10   ar
    42    24    22    1
    43    27    28    1
@<TRIPOS>MOLECULE
*****
 38 43 0 0 0
SMALL
GASTEIGER

@<TRIPOS>ATOM
      1 C         140.7110  138.8407  159.1749 C.3     1  UNL1        0.0930
      2 C         140.2873  140.2774  159.0954 C.3     1  UNL1        0.0427
      3 C         139.9217  140.7300  160.4780 C.3     1  UNL1        0.0927
      4 N         140.1195  139.5730  161.4119 N.pl3   1  UNL1       -0.3033
      5 C         140.6073  138.4054  160.6066 C.3     1  UNL1        0.1104
      6 C         139.8728  139.5821  162.8915 C.ar    1  UNL1        0.0878
      7 C         138.7266  138.8031  163.4656 C.ar    1  UNL1        0.1543
      8 F         137.8272  138.0151  162.5601 F       1  UNL1       -0.2028
      9 C         138.4800  138.8122  164.9451 C.ar    1  UNL1        0.0356
     10 C         139.3795  139.6002  165.8506 C.ar    1  UNL1        0.0580
     11 C         139.1328  139.6093  167.3302 C.ar    1  UNL1        0.1996
     12 O         137.9866  138.8303  167.9042 O.2     1  UNL1       -0.2864
     13 C         140.0322  140.3973  168.2357 C.ar    1  UNL1        0.0701
     14 C         141.1784  141.1763  167.6616 C.ar    1  UNL1        0.0801
     15 N         141.4251  141.1672  166.1821 N.ar    1  UNL1       -0.3270
     16 C         140.5256  140.3792  165.2766 C.ar    1  UNL1        0.0750
     17 C         140.7723  140.3701  163.7971 C.ar    1  UNL1        0.0890
     18 CL        141.9184  141.1491  163.2230 Cl      1  UNL1       -0.0794
     19 C         139.7856  140.4064  169.7152 C.2     1  UNL1        0.0774
     20 O         140.4267  139.3692  170.5888 O.co2   1  UNL1       -0.5444
     21 O         138.8977  141.4527  170.3212 O.co2   1  UNL1       -0.5444
     22 C         142.5712  141.9462  165.6081 C.3     1  UNL1        0.0857
     23 C         143.1279  143.2295  165.0666 C.3     1  UNL1        0.0245
     24 C         143.9997  142.0122  165.1553 C.3     1  UNL1        0.0245
     25 O         143.6183  138.7157  158.4454 O.2     1  UNL1       -0.2730
     26 C         142.6133  137.9263  157.6599 C.2     1  UNL1        0.2456
     27 N         141.1597  137.9889  158.0246 N.am    1  UNL1       -0.3026
     28 H         140.5001  137.4708  157.5091 H       1  UNL1        0.1495
     29 C         143.0620  137.0745  156.5096 C.3     1  UNL1        0.1929
     30 N         142.9119  135.5835  156.5772 N.ar    1  UNL1       -0.3004
     31 C         143.2749  134.7128  157.7434 C.ar    1  UNL1        0.1789
     32 N         142.9599  133.2927  157.3774 N.ar    1  UNL1       -0.2239
     33 C         142.4023  133.2857  155.9850 C.ar    1  UNL1        0.0988
     34 C         141.9176  132.1731  155.1033 C.ar    1  UNL1        0.0206
     35 C         141.4034  132.4762  153.7273 C.ar    1  UNL1        0.0016
     36 C         141.3737  133.8921  153.2328 C.ar    1  UNL1        0.0016
     37 C         141.8583  135.0048  154.1143 C.ar    1  UNL1        0.0188
     38 C         142.3726  134.7015  155.4904 C.ar    1  UNL1        0.0793
@<TRIPOS>UNITY_ATOM_ATTR
20 1
charge -1
@<TRIPOS>BOND
     1    25    26    2
     2    26    29    1
     3    29    30    1
     4    30    31   ar
     5    31    32   ar
     6    32    33   ar
     7    33    34   ar
     8    34    35   ar
     9    35    36   ar
    10    36    37   ar
    11    37    38   ar
    12    26    27   am
    13    27     1    1
    14     1     2    1
    15     2     3    1
    16     3     4    1
    17     4     6    1
    18     6     7   ar
    19     7     8    1
    20     7     9   ar
    21     9    10   ar
    22    10    11   ar
    23    11    12    2
    24    11    13   ar
    25    13    19    1
    26    19    20   ar
    27    19    21   ar
    28    13    14   ar
    29    14    15   ar
    30    15    22    1
    31    22    23    1
    32    23    24    1
    33    15    16   ar
    34    16    17   ar
    35    17    18    1
    36     4     5    1
    37    38    30   ar
    38     5     1    1
    39    38    33   ar
    40    17     6   ar
    41    16    10   ar
    42    24    22    1
    43    27    28    1
@<TRIPOS>MOLECULE
*****
 38 43 0 0 0
SMALL
GASTEIGER

@<TRIPOS>ATOM
      1 C         140.5351  138.7794  160.6043 C.3     1  UNL1        0.0930
      2 C         139.2164  138.2641  161.1001 C.3     1  UNL1        0.0427
      3 C         139.1450  138.5180  162.5767 C.3     1  UNL1        0.0927
      4 N         140.4195  139.1902  162.9936 N.pl3   1  UNL1       -0.3033
      5 C         141.2786  139.3517  161.7746 C.3     1  UNL1        0.1104
      6 C         140.7729  139.6246  164.3852 C.ar    1  UNL1        0.0878
      7 C         141.5277  138.6978  165.2913 C.ar    1  UNL1        0.1543
      8 F         141.9292  137.3364  164.8059 F       1  UNL1       -0.2028
      9 C         141.8810  139.1322  166.6828 C.ar    1  UNL1        0.0356
     10 C         141.4795  140.4935  167.1682 C.ar    1  UNL1        0.0580
     11 C         141.8329  140.9279  168.5598 C.ar    1  UNL1        0.1996
     12 O         142.5877  140.0011  169.4660 O.2     1  UNL1       -0.2864
     13 C         141.4314  142.2893  169.0453 C.ar    1  UNL1        0.0701
     14 C         140.6765  143.2162  168.1390 C.ar    1  UNL1        0.0801
     15 N         140.3232  142.7817  166.7475 N.ar    1  UNL1       -0.3270
     16 C         140.7247  141.4204  166.2621 C.ar    1  UNL1        0.0750
     17 C         140.3714  140.9860  164.8706 C.ar    1  UNL1        0.0890
     18 CL        139.6165  141.9129  163.9644 Cl      1  UNL1       -0.0794
     19 C         141.7847  142.7237  170.4368 C.2     1  UNL1        0.0774
     20 O         140.9995  142.2073  171.6058 O.co2   1  UNL1       -0.5444
     21 O         142.9234  143.6746  170.6593 O.co2   1  UNL1       -0.5444
     22 C         139.5684  143.7086  165.8414 C.3     1  UNL1        0.0857
     23 C         139.5549  144.6962  164.7125 C.3     1  UNL1        0.0245
     24 C         138.2745  144.3265  165.4009 C.3     1  UNL1        0.0245
     25 O         142.9725  137.1726  159.9132 O.2     1  UNL1       -0.2730
     26 C         142.2430  137.9274  158.8416 C.2     1  UNL1        0.2456
     27 N         141.0243  138.7308  159.1872 N.am    1  UNL1       -0.3026
     28 H         140.5456  139.2262  158.4839 H       1  UNL1        0.1495
     29 C         142.7322  137.8789  157.4245 C.3     1  UNL1        0.1929
     30 N         142.1605  136.8750  156.4676 N.ar    1  UNL1       -0.3004
     31 C         141.2389  137.1739  155.3225 C.ar    1  UNL1        0.1789
     32 N         140.9189  135.8797  154.6351 N.ar    1  UNL1       -0.2239
     33 C         141.6426  134.7810  155.3554 C.ar    1  UNL1        0.0988
     34 C         141.7020  133.2997  155.1263 C.ar    1  UNL1        0.0206
     35 C         142.5288  132.4337  156.0298 C.ar    1  UNL1        0.0016
     36 C         143.2962  133.0489  157.1624 C.ar    1  UNL1        0.0016
     37 C         143.2368  134.5301  157.3915 C.ar    1  UNL1        0.0188
     38 C         142.4100  135.3961  156.4880 C.ar    1  UNL1        0.0793
@<TRIPOS>UNITY_ATOM_ATTR
20 1
charge -1
@<TRIPOS>BOND
     1    25    26    2
     2    26    29    1
     3    29    30    1
     4    30    31   ar
     5    31    32   ar
     6    32    33   ar
     7    33    34   ar
     8    34    35   ar
     9    35    36   ar
    10    36    37   ar
    11    37    38   ar
    12    26    27   am
    13    27     1    1
    14     1     2    1
    15     2     3    1
    16     3     4    1
    17     4     6    1
    18     6     7   ar
    19     7     8    1
    20     7     9   ar
    21     9    10   ar
    22    10    11   ar
    23    11    12    2
    24    11    13   ar
    25    13    19    1
    26    19    20   ar
    27    19    21   ar
    28    13    14   ar
    29    14    15   ar
    30    15    22    1
    31    22    23    1
    32    23    24    1
    33    15    16   ar
    34    16    17   ar
    35    17    18    1
    36     4     5    1
    37    38    30   ar
    38     5     1    1
    39    38    33   ar
    40    17     6   ar
    41    16    10   ar
    42    24    22    1
    43    27    28    1
@<TRIPOS>MOLECULE
*****
 38 43 0 0 0
SMALL
GASTEIGER

@<TRIPOS>ATOM
      1 C         140.7373  143.5943  160.3071 C.3     1  UNL1        0.0930
      2 C         141.7247  142.5233  159.9492 C.3     1  UNL1        0.0427
      3 C         142.3122  141.9902  161.2222 C.3     1  UNL1        0.0927
      4 N         141.6878  142.7316  162.3670 N.pl3   1  UNL1       -0.3033
      5 C         140.7145  143.7230  161.8014 C.3     1  UNL1        0.1104
      6 C         141.9847  142.5190  163.8219 C.ar    1  UNL1        0.0878
      7 C         143.0822  143.2973  164.4850 C.ar    1  UNL1        0.1543
      8 F         143.8829  144.2882  163.6932 F       1  UNL1       -0.2028
      9 C         143.3790  143.0847  165.9398 C.ar    1  UNL1        0.0356
     10 C         142.5783  142.0937  166.7316 C.ar    1  UNL1        0.0580
     11 C         142.8751  141.8811  168.1866 C.ar    1  UNL1        0.1996
     12 O         143.9726  142.6594  168.8496 O.2     1  UNL1       -0.2864
     13 C         142.0744  140.8902  168.9783 C.ar    1  UNL1        0.0701
     14 C         140.9769  140.1119  168.3152 C.ar    1  UNL1        0.0801
     15 N         140.6801  140.3245  166.8603 N.ar    1  UNL1       -0.3270
     16 C         141.4808  141.3154  166.0686 C.ar    1  UNL1        0.0750
     17 C         141.1840  141.5281  164.6137 C.ar    1  UNL1        0.0890
     18 CL        140.0864  140.7498  163.9505 Cl      1  UNL1       -0.0794
     19 C         142.3712  140.6776  170.4332 C.2     1  UNL1        0.0774
     20 O         143.4505  139.7214  170.8465 O.co2   1  UNL1       -0.5444
     21 O         141.5887  141.4211  171.4748 O.co2   1  UNL1       -0.5444
     22 C         139.5826  139.5462  166.1973 C.3     1  UNL1        0.0857
     23 C         139.1061  138.3027  165.5069 C.3     1  UNL1        0.0245
     24 C         138.1581  139.4416  165.7391 C.3     1  UNL1        0.0245
     25 O         142.0476  145.6855  158.6012 O.2     1  UNL1       -0.2730
     26 C         140.5718  145.4414  158.4875 C.2     1  UNL1        0.2456
     27 N         139.9168  144.3958  159.3405 N.am    1  UNL1       -0.3026
     28 H         138.9482  144.2356  159.2660 H       1  UNL1        0.1495
     29 C         139.7513  146.2429  157.5209 C.3     1  UNL1        0.1929
     30 N         140.1899  146.3727  156.0924 N.ar    1  UNL1       -0.3004
     31 C         140.9055  145.3258  155.2912 C.ar    1  UNL1        0.1789
     32 N         141.1477  145.8782  153.9178 N.ar    1  UNL1       -0.2239
     33 C         140.5819  147.2665  153.8703 C.ar    1  UNL1        0.0988
     34 C         140.5292  148.2921  152.7768 C.ar    1  UNL1        0.0206
     35 C         139.8846  149.6230  153.0273 C.ar    1  UNL1        0.0016
     36 C         139.2925  149.9286  154.3713 C.ar    1  UNL1        0.0016
     37 C         139.3452  148.9032  155.4647 C.ar    1  UNL1        0.0188
     38 C         139.9899  147.5721  155.2142 C.ar    1  UNL1        0.0793
@<TRIPOS>UNITY_ATOM_ATTR
20 1
charge -1
@<TRIPOS>BOND
     1    25    26    2
     2    26    29    1
     3    29    30    1
     4    30    31   ar
     5    31    32   ar
     6    32    33   ar
     7    33    34   ar
     8    34    35   ar
     9    35    36   ar
    10    36    37   ar
    11    37    38   ar
    12    26    27   am
    13    27     1    1
    14     1     2    1
    15     2     3    1
    16     3     4    1
    17     4     6    1
    18     6     7   ar
    19     7     8    1
    20     7     9   ar
    21     9    10   ar
    22    10    11   ar
    23    11    12    2
    24    11    13   ar
    25    13    19    1
    26    19    20   ar
    27    19    21   ar
    28    13    14   ar
    29    14    15   ar
    30    15    22    1
    31    22    23    1
    32    23    24    1
    33    15    16   ar
    34    16    17   ar
    35    17    18    1
    36     4     5    1
    37    38    30   ar
    38     5     1    1
    39    38    33   ar
    40    17     6   ar
    41    16    10   ar
    42    24    22    1
    43    27    28    1
@<TRIPOS>MOLECULE
*****
 38 43 0 0 0
SMALL
GASTEIGER

@<TRIPOS>ATOM
      1 C         143.0528  140.5083  159.7817 C.3     1  UNL1        0.0930
      2 C         142.1007  141.6629  159.6786 C.3     1  UNL1        0.0427
      3 C         141.8402  142.1740  161.0646 C.3     1  UNL1        0.0927
      4 N         142.6313  141.3354  162.0242 N.pl3   1  UNL1       -0.3033
      5 C         143.3806  140.3059  161.2313 C.3     1  UNL1        0.1104
      6 C         142.6667  141.4977  163.5150 C.ar    1  UNL1        0.0878
      7 C         143.7666  142.2900  164.1573 C.ar    1  UNL1        0.1543
      8 F         144.8310  142.9201  163.3087 F       1  UNL1       -0.2028
      9 C         143.8020  142.4523  165.6480 C.ar    1  UNL1        0.0356
     10 C         142.7376  141.8222  166.4965 C.ar    1  UNL1        0.0580
     11 C         142.7730  141.9845  167.9874 C.ar    1  UNL1        0.1996
     12 O         143.8729  142.7768  168.6296 O.2     1  UNL1       -0.2864
     13 C         141.7086  141.3544  168.8359 C.ar    1  UNL1        0.0701
     14 C         140.6088  140.5620  168.1936 C.ar    1  UNL1        0.0801
     15 N         140.5733  140.3998  166.7029 N.ar    1  UNL1       -0.3270
     16 C         141.6377  141.0298  165.8543 C.ar    1  UNL1        0.0750
     17 C         141.6023  140.8676  164.3636 C.ar    1  UNL1        0.0890
     18 CL        140.5024  140.0752  163.7213 Cl      1  UNL1       -0.0794
     19 C         141.7441  141.5167  170.3266 C.2     1  UNL1        0.0774
     20 O         142.3740  140.4574  171.1816 O.co2   1  UNL1       -0.5444
     21 O         141.1495  142.7383  170.9625 O.co2   1  UNL1       -0.5444
     22 C         139.4735  139.6074  166.0606 C.3     1  UNL1        0.0857
     23 C         138.9457  138.3040  165.5387 C.3     1  UNL1        0.0245
     24 C         138.0963  139.5384  165.4703 C.3     1  UNL1        0.0245
     25 O         141.3920  138.3033  158.6069 O.2     1  UNL1       -0.2730
     26 C         142.7533  138.5958  158.0488 C.2     1  UNL1        0.2456
     27 N         143.5837  139.6983  158.6362 N.am    1  UNL1       -0.3026
     28 H         144.4771  139.8903  158.2700 H       1  UNL1        0.1495
     29 C         143.2842  137.7859  156.9033 C.3     1  UNL1        0.1929
     30 N         142.4024  136.7810  156.2230 N.ar    1  UNL1       -0.3004
     31 C         141.2252  137.0911  155.3467 C.ar    1  UNL1        0.1789
     32 N         140.6383  135.7914  154.8817 N.ar    1  UNL1       -0.2239
     33 C         141.4528  134.6780  155.4707 C.ar    1  UNL1        0.0988
     34 C         141.3425  133.1862  155.3593 C.ar    1  UNL1        0.0206
     35 C         142.3225  132.3061  156.0768 C.ar    1  UNL1        0.0016
     36 C         143.4128  132.9177  156.9059 C.ar    1  UNL1        0.0016
     37 C         143.5231  134.4095  157.0173 C.ar    1  UNL1        0.0188
     38 C         142.5431  135.2896  156.2997 C.ar    1  UNL1        0.0793
@<TRIPOS>UNITY_ATOM_ATTR
20 1
charge -1
@<TRIPOS>BOND
     1    25    26    2
     2    26    29    1
     3    29    30    1
     4    30    31   ar
     5    31    32   ar
     6    32    33   ar
     7    33    34   ar
     8    34    35   ar
     9    35    36   ar
    10    36    37   ar
    11    37    38   ar
    12    26    27   am
    13    27     1    1
    14     1     2    1
    15     2     3    1
    16     3     4    1
    17     4     6    1
    18     6     7   ar
    19     7     8    1
    20     7     9   ar
    21     9    10   ar
    22    10    11   ar
    23    11    12    2
    24    11    13   ar
    25    13    19    1
    26    19    20   ar
    27    19    21   ar
    28    13    14   ar
    29    14    15   ar
    30    15    22    1
    31    22    23    1
    32    23    24    1
    33    15    16   ar
    34    16    17   ar
    35    17    18    1
    36     4     5    1
    37    38    30   ar
    38     5     1    1
    39    38    33   ar
    40    17     6   ar
    41    16    10   ar
    42    24    22    1
    43    27    28    1
@<TRIPOS>MOLECULE
*****
 38 43 0 0 0
SMALL
GASTEIGER

@<TRIPOS>ATOM
      1 C         143.2899  141.2841  160.7209 C.3     1  UNL1        0.0930
      2 C         144.1833  140.1559  161.1444 C.3     1  UNL1        0.0427
      3 C         144.1444  140.0707  162.6414 C.3     1  UNL1        0.0927
      4 N         143.2271  141.1462  163.1433 N.pl3   1  UNL1       -0.3033
      5 C         142.6990  141.8961  161.9564 C.3     1  UNL1        0.1104
      6 C         142.8960  141.4231  164.5799 C.ar    1  UNL1        0.0878
      7 C         143.8167  142.2647  165.4130 C.ar    1  UNL1        0.1543
      8 F         145.0685  142.8294  164.8095 F       1  UNL1       -0.2028
      9 C         143.4855  142.5416  166.8495 C.ar    1  UNL1        0.0356
     10 C         142.2337  141.9770  167.4529 C.ar    1  UNL1        0.0580
     11 C         141.9026  142.2539  168.8895 C.ar    1  UNL1        0.1996
     12 O         142.8232  143.0955  169.7226 O.2     1  UNL1       -0.2864
     13 C         140.6508  141.6893  169.4929 C.ar    1  UNL1        0.0701
     14 C         139.7301  140.8477  168.6598 C.ar    1  UNL1        0.0801
     15 N         140.0612  140.5707  167.2233 N.ar    1  UNL1       -0.3270
     16 C         141.3130  141.1354  166.6198 C.ar    1  UNL1        0.0750
     17 C         141.6442  140.8585  165.1833 C.ar    1  UNL1        0.0890
     18 CL        140.7235  140.0168  164.3502 Cl      1  UNL1       -0.0794
     19 C         140.3196  141.9662  170.9294 C.2     1  UNL1        0.0774
     20 O         139.4812  143.1567  171.2898 O.co2   1  UNL1       -0.5444
     21 O         140.8269  141.0526  172.0057 O.co2   1  UNL1       -0.5444
     22 C         139.1406  139.7291  166.3902 C.3     1  UNL1        0.0857
     23 C         138.0380  139.6211  165.3789 C.3     1  UNL1        0.0245
     24 C         138.6484  138.3796  165.9585 C.3     1  UNL1        0.0245
     25 O         142.7970  144.1813  160.1178 O.2     1  UNL1       -0.2730
     26 C         142.7862  143.1718  159.0083 C.2     1  UNL1        0.2456
     27 N         143.0327  141.7232  159.3099 N.am    1  UNL1       -0.3026
     28 H         143.0257  141.0606  158.5818 H       1  UNL1        0.1495
     29 C         142.5290  143.6108  157.5973 C.3     1  UNL1        0.1929
     30 N         141.1371  143.5669  157.0400 N.ar    1  UNL1       -0.3004
     31 C         140.2392  142.3658  157.0043 C.ar    1  UNL1        0.1789
     32 N         138.9458  142.7729  156.3629 N.ar    1  UNL1       -0.2239
     33 C         139.0443  144.2254  156.0022 C.ar    1  UNL1        0.0988
     34 C         138.0758  145.1648  155.3466 C.ar    1  UNL1        0.0206
     35 C         138.4616  146.5948  155.1096 C.ar    1  UNL1        0.0016
     36 C         139.8159  147.0855  155.5282 C.ar    1  UNL1        0.0016
     37 C         140.7844  146.1462  156.1837 C.ar    1  UNL1        0.0188
     38 C         140.3986  144.7162  156.4206 C.ar    1  UNL1        0.0793
@<TRIPOS>UNITY_ATOM_ATTR
20 1
charge -1
@<TRIPOS>BOND
     1    25    26    2
     2    26    29    1
     3    29    30    1
     4    30    31   ar
     5    31    32   ar
     6    32    33   ar
     7    33    34   ar
     8    34    35   ar
     9    35    36   ar
    10    36    37   ar
    11    37    38   ar
    12    26    27   am
    13    27     1    1
    14     1     2    1
    15     2     3    1
    16     3     4    1
    17     4     6    1
    18     6     7   ar
    19     7     8    1
    20     7     9   ar
    21     9    10   ar
    22    10    11   ar
    23    11    12    2
    24    11    13   ar
    25    13    19    1
    26    19    20   ar
    27    19    21   ar
    28    13    14   ar
    29    14    15   ar
    30    15    22    1
    31    22    23    1
    32    23    24    1
    33    15    16   ar
    34    16    17   ar
    35    17    18    1
    36     4     5    1
    37    38    30   ar
    38     5     1    1
    39    38    33   ar
    40    17     6   ar
    41    16    10   ar
    42    24    22    1
    43    27    28    1
@<TRIPOS>MOLECULE
*****
 38 43 0 0 0
SMALL
GASTEIGER

@<TRIPOS>ATOM
      1 C         143.4883  141.6440  159.1900 C.3     1  UNL1        0.0930
      2 C         142.4130  142.6876  159.2598 C.3     1  UNL1        0.0427
      3 C         142.1056  142.9405  160.7060 C.3     1  UNL1        0.0927
      4 N         142.9909  142.0533  161.5301 N.pl3   1  UNL1       -0.3033
      5 C         143.8454  141.2520  160.5931 C.3     1  UNL1        0.1104
      6 C         143.0171  141.9801  163.0281 C.ar    1  UNL1        0.0878
      7 C         143.7071  143.0514  163.8194 C.ar    1  UNL1        0.1543
      8 F         144.3709  144.1960  163.1127 F       1  UNL1       -0.2028
      9 C         143.7333  142.9782  165.3173 C.ar    1  UNL1        0.0356
     10 C         143.0695  141.8337  166.0240 C.ar    1  UNL1        0.0580
     11 C         143.0957  141.7605  167.5221 C.ar    1  UNL1        0.1996
     12 O         143.7856  142.8319  168.3133 O.2     1  UNL1       -0.2864
     13 C         142.4319  140.6160  168.2287 C.ar    1  UNL1        0.0701
     14 C         141.7418  139.5446  167.4374 C.ar    1  UNL1        0.0801
     15 N         141.7157  139.6178  165.9394 N.ar    1  UNL1       -0.3270
     16 C         142.3795  140.7624  165.2328 C.ar    1  UNL1        0.0750
     17 C         142.3533  140.8356  163.7348 C.ar    1  UNL1        0.0890
     18 CL        141.6633  139.7642  162.9435 Cl      1  UNL1       -0.0794
     19 C         142.4580  140.5428  169.7267 C.2     1  UNL1        0.0774
     20 O         141.5780  141.4475  170.5373 O.co2   1  UNL1       -0.5444
     21 O         143.3643  139.5648  170.4141 O.co2   1  UNL1       -0.5444
     22 C         141.0257  138.5465  165.1482 C.3     1  UNL1        0.0857
     23 C         139.7918  138.0153  164.4808 C.3     1  UNL1        0.0245
     24 C         141.0644  137.2221  164.4451 C.3     1  UNL1        0.0245
     25 O         145.9993  142.8558  158.0825 O.2     1  UNL1       -0.2730
     26 C         145.3546  141.6957  157.3833 C.2     1  UNL1        0.2456
     27 N         144.0991  141.0898  157.9371 N.am    1  UNL1       -0.3026
     28 H         143.6760  140.3285  157.4783 H       1  UNL1        0.1495
     29 C         145.9655  141.1415  156.1304 C.3     1  UNL1        0.1929
     30 N         146.5388  142.0701  155.1013 N.ar    1  UNL1       -0.3004
     31 C         145.7605  143.0187  154.2385 C.ar    1  UNL1        0.1789
     32 N         146.7317  143.7479  153.3582 N.ar    1  UNL1       -0.2239
     33 C         148.1102  143.2501  153.6770 C.ar    1  UNL1        0.0988
     34 C         149.4588  143.6070  153.1256 C.ar    1  UNL1        0.0206
     35 C         150.6880  142.9270  153.6513 C.ar    1  UNL1        0.0016
     36 C         150.5688  141.8900  154.7287 C.ar    1  UNL1        0.0016
     37 C         149.2203  141.5331  155.2801 C.ar    1  UNL1        0.0188
     38 C         147.9910  142.2131  154.7543 C.ar    1  UNL1        0.0793
@<TRIPOS>UNITY_ATOM_ATTR
20 1
charge -1
@<TRIPOS>BOND
     1    25    26    2
     2    26    29    1
     3    29    30    1
     4    30    31   ar
     5    31    32   ar
     6    32    33   ar
     7    33    34   ar
     8    34    35   ar
     9    35    36   ar
    10    36    37   ar
    11    37    38   ar
    12    26    27   am
    13    27     1    1
    14     1     2    1
    15     2     3    1
    16     3     4    1
    17     4     6    1
    18     6     7   ar
    19     7     8    1
    20     7     9   ar
    21     9    10   ar
    22    10    11   ar
    23    11    12    2
    24    11    13   ar
    25    13    19    1
    26    19    20   ar
    27    19    21   ar
    28    13    14   ar
    29    14    15   ar
    30    15    22    1
    31    22    23    1
    32    23    24    1
    33    15    16   ar
    34    16    17   ar
    35    17    18    1
    36     4     5    1
    37    38    30   ar
    38     5     1    1
    39    38    33   ar
    40    17     6   ar
    41    16    10   ar
    42    24    22    1
    43    27    28    1
@<TRIPOS>MOLECULE
*****
 38 43 0 0 0
SMALL
GASTEIGER

@<TRIPOS>ATOM
      1 C         140.5326  138.6565  160.6642 C.3     1  UNL1        0.0930
      2 C         139.2331  138.1040  161.1703 C.3     1  UNL1        0.0427
      3 C         139.1594  138.3695  162.6448 C.3     1  UNL1        0.0927
      4 N         140.4133  139.0860  163.0500 N.pl3   1  UNL1       -0.3033
      5 C         141.2620  139.2634  161.8260 C.3     1  UNL1        0.1104
      6 C         140.7581  139.5446  164.4360 C.ar    1  UNL1        0.0878
      7 C         141.5002  138.6308  165.3655 C.ar    1  UNL1        0.1543
      8 F         141.8977  137.2583  164.9091 F       1  UNL1       -0.2028
      9 C         141.8450  139.0895  166.7514 C.ar    1  UNL1        0.0356
     10 C         141.4475  140.4620  167.2078 C.ar    1  UNL1        0.0580
     11 C         141.7923  140.9206  168.5938 C.ar    1  UNL1        0.1996
     12 O         142.5344  140.0068  169.5233 O.2     1  UNL1       -0.2864
     13 C         141.3948  142.2931  169.0501 C.ar    1  UNL1        0.0701
     14 C         140.6526  143.2070  168.1205 C.ar    1  UNL1        0.0801
     15 N         140.3079  142.7483  166.7347 N.ar    1  UNL1       -0.3270
     16 C         140.7053  141.3758  166.2783 C.ar    1  UNL1        0.0750
     17 C         140.3606  140.9171  164.8924 C.ar    1  UNL1        0.0890
     18 CL        139.6184  141.8310  163.9628 Cl      1  UNL1       -0.0794
     19 C         141.7395  142.7518  170.4360 C.2     1  UNL1        0.0774
     20 O         140.9952  142.1999  171.6156 O.co2   1  UNL1       -0.5444
     21 O         142.8287  143.7624  170.6424 O.co2   1  UNL1       -0.5444
     22 C         139.5657  143.6621  165.8051 C.3     1  UNL1        0.0857
     23 C         138.2735  144.2393  165.3081 C.3     1  UNL1        0.0245
     24 C         139.5724  144.6677  164.6922 C.3     1  UNL1        0.0245
     25 O         143.0560  137.1811  159.9890 O.2     1  UNL1       -0.2730
     26 C         142.2792  137.8725  158.9079 C.2     1  UNL1        0.2456
     27 N         141.0176  138.6102  159.2455 N.am    1  UNL1       -0.3026
     28 H         140.5077  139.0640  158.5360 H       1  UNL1        0.1495
     29 C         142.7642  137.8262  157.4892 C.3     1  UNL1        0.1929
     30 N         142.6269  136.5640  156.6905 N.ar    1  UNL1       -0.3004
     31 C         143.2248  135.2324  157.0362 C.ar    1  UNL1        0.1789
     32 N         142.8351  134.2572  155.9652 N.ar    1  UNL1       -0.2239
     33 C         141.9964  134.9860  154.9576 C.ar    1  UNL1        0.0988
     34 C         141.3332  134.5357  153.6897 C.ar    1  UNL1        0.0206
     35 C         140.5414  135.5110  152.8702 C.ar    1  UNL1        0.0016
     36 C         140.4128  136.9367  153.3184 C.ar    1  UNL1        0.0016
     37 C         141.0759  137.3871  154.5862 C.ar    1  UNL1        0.0188
     38 C         141.8678  136.4117  155.4058 C.ar    1  UNL1        0.0793
@<TRIPOS>UNITY_ATOM_ATTR
20 1
charge -1
@<TRIPOS>BOND
     1    25    26    2
     2    26    29    1
     3    29    30    1
     4    30    31   ar
     5    31    32   ar
     6    32    33   ar
     7    33    34   ar
     8    34    35   ar
     9    35    36   ar
    10    36    37   ar
    11    37    38   ar
    12    26    27   am
    13    27     1    1
    14     1     2    1
    15     2     3    1
    16     3     4    1
    17     4     6    1
    18     6     7   ar
    19     7     8    1
    20     7     9   ar
    21     9    10   ar
    22    10    11   ar
    23    11    12    2
    24    11    13   ar
    25    13    19    1
    26    19    20   ar
    27    19    21   ar
    28    13    14   ar
    29    14    15   ar
    30    15    22    1
    31    22    23    1
    32    23    24    1
    33    15    16   ar
    34    16    17   ar
    35    17    18    1
    36     4     5    1
    37    38    30   ar
    38     5     1    1
    39    38    33   ar
    40    17     6   ar
    41    16    10   ar
    42    24    22    1
    43    27    28    1
@<TRIPOS>MOLECULE
*****
 38 43 0 0 0
SMALL
GASTEIGER

@<TRIPOS>ATOM
      1 C         140.2066  139.1603  160.5941 C.3     1  UNL1        0.0930
      2 C         138.9432  138.5403  161.1134 C.3     1  UNL1        0.0427
      3 C         138.7715  138.9651  162.5417 C.3     1  UNL1        0.0927
      4 N         139.9286  139.8476  162.9051 N.pl3   1  UNL1       -0.3033
      5 C         140.8155  139.9683  161.7014 C.3     1  UNL1        0.1104
      6 C         140.1585  140.4958  164.2382 C.ar    1  UNL1        0.0878
      7 C         139.3081  141.6553  164.6650 C.ar    1  UNL1        0.1543
      8 F         138.2277  142.1667  163.7588 F       1  UNL1       -0.2028
      9 C         139.5380  142.3035  165.9981 C.ar    1  UNL1        0.0356
     10 C         140.6184  141.7921  166.9043 C.ar    1  UNL1        0.0580
     11 C         140.8483  142.4402  168.2374 C.ar    1  UNL1        0.1996
     12 O         139.9978  143.5998  168.6642 O.2     1  UNL1       -0.2864
     13 C         141.9286  141.9288  169.1436 C.ar    1  UNL1        0.0701
     14 C         142.7791  140.7693  168.7167 C.ar    1  UNL1        0.0801
     15 N         142.5492  140.1212  167.3837 N.ar    1  UNL1       -0.3270
     16 C         141.4688  140.6325  166.4775 C.ar    1  UNL1        0.0750
     17 C         141.2389  139.9844  165.1444 C.ar    1  UNL1        0.0890
     18 CL        142.0894  138.8249  164.7176 Cl      1  UNL1       -0.0794
     19 C         142.1586  142.5770  170.4767 C.2     1  UNL1        0.0774
     20 O         141.3338  142.1689  171.6612 O.co2   1  UNL1       -0.5444
     21 O         143.2133  143.6332  170.6252 O.co2   1  UNL1       -0.5444
     22 C         143.3997  138.9616  166.9569 C.3     1  UNL1        0.0857
     23 C         143.8210  137.5310  167.1177 C.3     1  UNL1        0.0245
     24 C         144.4514  138.3839  166.0569 C.3     1  UNL1        0.0245
     25 O         142.7191  137.5790  160.1615 O.2     1  UNL1       -0.2730
     26 C         142.0194  138.2097  158.9940 C.2     1  UNL1        0.2456
     27 N         140.7632  139.0003  159.2104 N.am    1  UNL1       -0.3026
     28 H         140.3040  139.4142  158.4442 H       1  UNL1        0.1495
     29 C         142.5760  138.0498  157.6104 C.3     1  UNL1        0.1929
     30 N         141.9360  137.0909  156.6507 N.ar    1  UNL1       -0.3004
     31 C         140.8645  137.4233  155.6550 C.ar    1  UNL1        0.1789
     32 N         140.5214  136.1691  154.9072 N.ar    1  UNL1       -0.2239
     33 C         141.3807  135.0616  155.4407 C.ar    1  UNL1        0.0988
     34 C         141.4802  133.6078  155.0845 C.ar    1  UNL1        0.0206
     35 C         142.4538  132.7239  155.8059 C.ar    1  UNL1        0.0016
     36 C         143.3282  133.2935  156.8835 C.ar    1  UNL1        0.0016
     37 C         143.2288  134.7472  157.2397 C.ar    1  UNL1        0.0188
     38 C         142.2550  135.6312  156.5182 C.ar    1  UNL1        0.0793
@<TRIPOS>UNITY_ATOM_ATTR
20 1
charge -1
@<TRIPOS>BOND
     1    25    26    2
     2    26    29    1
     3    29    30    1
     4    30    31   ar
     5    31    32   ar
     6    32    33   ar
     7    33    34   ar
     8    34    35   ar
     9    35    36   ar
    10    36    37   ar
    11    37    38   ar
    12    26    27   am
    13    27     1    1
    14     1     2    1
    15     2     3    1
    16     3     4    1
    17     4     6    1
    18     6     7   ar
    19     7     8    1
    20     7     9   ar
    21     9    10   ar
    22    10    11   ar
    23    11    12    2
    24    11    13   ar
    25    13    19    1
    26    19    20   ar
    27    19    21   ar
    28    13    14   ar
    29    14    15   ar
    30    15    22    1
    31    22    23    1
    32    23    24    1
    33    15    16   ar
    34    16    17   ar
    35    17    18    1
    36     4     5    1
    37    38    30   ar
    38     5     1    1
    39    38    33   ar
    40    17     6   ar
    41    16    10   ar
    42    24    22    1
    43    27    28    1
