@<TRIPOS>MOLECULE
*****
 21 22 0 0 0
SMALL
GASTEIGER

@<TRIPOS>ATOM
      1 N         140.7857  144.7244  161.5307 N.3     1  UNL1       -0.1505
      2 C         139.6021  145.2546  162.2843 C.3     1  UNL1        0.1218
      3 C         139.6453  144.6889  163.6729 C.ar    1  UNL1       -0.0071
      4 C         138.7390  144.8613  164.8556 C.ar    1  UNL1       -0.0031
      5 C         139.0430  144.1538  166.1428 C.ar    1  UNL1       -0.0003
      6 C         140.2533  143.2740  166.2474 C.ar    1  UNL1       -0.0001
      7 C         141.1597  143.1016  165.0647 C.ar    1  UNL1       -0.0031
      8 C         140.8557  143.8090  163.7775 C.ar    1  UNL1       -0.0071
      9 C         141.5605  143.8310  162.4535 C.3     1  UNL1        0.1218
     10 C         141.4813  145.3423  158.6786 C.3     1  UNL1        0.1960
     11 S         141.1335  145.0333  160.1047 S.O2    1  UNL1        0.0463
     12 O         139.8135  145.7246  159.9325 O.2     1  UNL1       -0.1572
     13 O         142.4535  144.3420  160.2768 O.2     1  UNL1       -0.1572
     14 C         140.5573  142.5665  167.5347 C.2     1  UNL1        0.0047
     15 C         140.2892  143.2454  168.8451 C.2     1  UNL1        0.0598
     16 C         140.5931  142.5379  170.1324 C.2     1  UNL1        0.2679
     17 O         139.6477  141.4991  170.6587 O.2     1  UNL1       -0.2681
     18 N         141.8425  142.8693  170.8934 N.am    1  UNL1       -0.1934
     19 O         142.1464  142.1618  172.1807 O.3     1  UNL1       -0.2949
     20 H         142.4631  143.5511  170.5481 H       1  UNL1        0.1825
     21 H         141.4393  141.5270  172.3755 H       1  UNL1        0.2414
@<TRIPOS>BOND
     1    10    11    1
     2    11    12    2
     3    11    13    2
     4    11     1    1
     5     1     2    1
     6     2     3    1
     7     3     4   ar
     8     4     5   ar
     9     5     6   ar
    10     6    14    1
    11    14    15    2
    12    15    16    1
    13    16    17    2
    14    16    18   am
    15    18    19    1
    16     6     7   ar
    17     7     8   ar
    18     8     9    1
    19     9     1    1
    20     8     3   ar
    21    18    20    1
    22    19    21    1
@<TRIPOS>MOLECULE
*****
 21 22 0 0 0
SMALL
GASTEIGER

@<TRIPOS>ATOM
      1 N         138.3211  140.5774  161.1398 N.3     1  UNL1       -0.1505
      2 C         138.6441  139.1395  161.4193 C.3     1  UNL1        0.1218
      3 C         138.6440  138.9450  162.9066 C.ar    1  UNL1       -0.0071
      4 C         138.8964  137.7383  163.7610 C.ar    1  UNL1       -0.0031
      5 C         138.8257  137.8493  165.2552 C.ar    1  UNL1       -0.0003
      6 C         138.5025  139.1670  165.8950 C.ar    1  UNL1       -0.0001
      7 C         138.2501  140.3737  165.0405 C.ar    1  UNL1       -0.0031
      8 C         138.3209  140.2627  163.5464 C.ar    1  UNL1       -0.0071
      9 C         138.1213  141.2715  162.4544 C.3     1  UNL1        0.1218
     10 C         138.1113  141.8427  158.4277 C.3     1  UNL1        0.1960
     11 S         138.2162  141.2100  159.7837 S.O2    1  UNL1        0.0463
     12 O         138.2658  142.5701  160.4144 O.2     1  UNL1       -0.1572
     13 O         138.1666  139.8500  159.1531 O.2     1  UNL1       -0.1572
     14 C         138.4318  139.2779  167.3892 C.2     1  UNL1        0.0047
     15 C         139.4732  140.0601  168.1334 C.2     1  UNL1        0.0598
     16 C         139.4024  140.1710  169.6276 C.2     1  UNL1        0.2679
     17 O         138.0888  139.9988  170.3311 O.2     1  UNL1       -0.2681
     18 N         140.6452  140.4541  170.4184 N.am    1  UNL1       -0.1934
     19 O         140.5744  140.5650  171.9125 O.3     1  UNL1       -0.2949
     20 H         141.5073  140.5671  169.9566 H       1  UNL1        0.1825
     21 H         139.6593  140.4287  172.2039 H       1  UNL1        0.2414
@<TRIPOS>BOND
     1    10    11    1
     2    11    12    2
     3    11    13    2
     4    11     1    1
     5     1     2    1
     6     2     3    1
     7     3     4   ar
     8     4     5   ar
     9     5     6   ar
    10     6    14    1
    11    14    15    2
    12    15    16    1
    13    16    17    2
    14    16    18   am
    15    18    19    1
    16     6     7   ar
    17     7     8   ar
    18     8     9    1
    19     9     1    1
    20     8     3   ar
    21    18    20    1
    22    19    21    1
@<TRIPOS>MOLECULE
*****
 21 22 0 0 0
SMALL
GASTEIGER

@<TRIPOS>ATOM
      1 N         141.0492  144.2046  162.4377 N.3     1  UNL1       -0.1505
      2 C         142.4239  144.0716  163.0230 C.3     1  UNL1        0.1218
      3 C         142.3020  143.3536  164.3343 C.ar    1  UNL1       -0.0071
      4 C         143.3240  142.9426  165.3524 C.ar    1  UNL1       -0.0031
      5 C         142.8959  142.2208  166.5957 C.ar    1  UNL1       -0.0003
      6 C         141.4459  141.9100  166.8209 C.ar    1  UNL1       -0.0001
      7 C         140.4239  142.3210  165.8028 C.ar    1  UNL1       -0.0031
      8 C         140.8519  143.0428  164.5595 C.ar    1  UNL1       -0.0071
      9 C         140.0777  143.5687  163.3873 C.3     1  UNL1        0.1218
     10 C         140.3633  145.5126  159.8264 C.3     1  UNL1        0.1960
     11 S         140.7063  144.8586  161.1321 S.O2    1  UNL1        0.0463
     12 O         142.1433  144.7711  160.7108 O.2     1  UNL1       -0.1572
     13 O         139.2693  144.9460  161.5533 O.2     1  UNL1       -0.1572
     14 C         141.0178  141.1882  168.0642 C.2     1  UNL1        0.0047
     15 C         140.9203  141.9284  169.3652 C.2     1  UNL1        0.0598
     16 C         140.4923  141.2066  170.6085 C.2     1  UNL1        0.2679
     17 O         140.5323  141.9076  171.9341 O.2     1  UNL1       -0.2681
     18 N         140.0243  139.7839  170.5263 N.am    1  UNL1       -0.1934
     19 O         139.5963  139.0622  171.7696 O.3     1  UNL1       -0.2949
     20 H         139.9981  139.3238  169.6563 H       1  UNL1        0.1825
     21 H         139.6829  139.6541  172.5332 H       1  UNL1        0.2414
@<TRIPOS>BOND
     1    10    11    1
     2    11    12    2
     3    11    13    2
     4    11     1    1
     5     1     2    1
     6     2     3    1
     7     3     4   ar
     8     4     5   ar
     9     5     6   ar
    10     6    14    1
    11    14    15    2
    12    15    16    1
    13    16    17    2
    14    16    18   am
    15    18    19    1
    16     6     7   ar
    17     7     8   ar
    18     8     9    1
    19     9     1    1
    20     8     3   ar
    21    18    20    1
    22    19    21    1
@<TRIPOS>MOLECULE
*****
 21 22 0 0 0
SMALL
GASTEIGER

@<TRIPOS>ATOM
      1 N         142.0170  138.2838  163.2524 N.3     1  UNL1       -0.1505
      2 C         140.6116  137.7777  163.3892 C.3     1  UNL1        0.1218
      3 C         140.0614  138.2834  164.6898 C.ar    1  UNL1       -0.0071
      4 C         138.7279  138.1042  165.3528 C.ar    1  UNL1       -0.0031
      5 C         138.4598  138.7436  166.6829 C.ar    1  UNL1       -0.0003
      6 C         139.5251  139.5622  167.3500 C.ar    1  UNL1       -0.0001
      7 C         140.8586  139.7413  166.6869 C.ar    1  UNL1       -0.0031
      8 C         141.1267  139.1019  165.3568 C.ar    1  UNL1       -0.0071
      9 C         142.3354  139.1021  164.4685 C.3     1  UNL1        0.1218
     10 C         143.8664  137.7523  160.9508 C.3     1  UNL1        0.1960
     11 S         142.9417  138.0180  162.1016 S.O2    1  UNL1        0.0463
     12 O         141.8423  137.2903  161.3862 O.2     1  UNL1       -0.1572
     13 O         144.0411  138.7457  162.8170 O.2     1  UNL1       -0.1572
     14 C         139.2570  140.2016  168.6802 C.2     1  UNL1        0.0047
     15 C         140.2966  141.0771  169.3147 C.2     1  UNL1        0.0598
     16 C         140.0284  141.7165  170.6449 C.2     1  UNL1        0.2679
     17 O         140.6322  141.1382  171.8903 O.2     1  UNL1       -0.2681
     18 N         139.1565  142.9340  170.7296 N.am    1  UNL1       -0.1934
     19 O         138.8884  143.5734  172.0597 O.3     1  UNL1       -0.2949
     20 H         138.7602  143.3136  169.9122 H       1  UNL1        0.1825
     21 H         139.3500  143.0790  172.7550 H       1  UNL1        0.2414
@<TRIPOS>BOND
     1    10    11    1
     2    11    12    2
     3    11    13    2
     4    11     1    1
     5     1     2    1
     6     2     3    1
     7     3     4   ar
     8     4     5   ar
     9     5     6   ar
    10     6    14    1
    11    14    15    2
    12    15    16    1
    13    16    17    2
    14    16    18   am
    15    18    19    1
    16     6     7   ar
    17     7     8   ar
    18     8     9    1
    19     9     1    1
    20     8     3   ar
    21    18    20    1
    22    19    21    1
@<TRIPOS>MOLECULE
*****
 21 22 0 0 0
SMALL
GASTEIGER

@<TRIPOS>ATOM
      1 N         139.6911  144.1679  163.3841 N.3     1  UNL1       -0.1505
      2 C         138.9028  142.8920  163.3648 C.3     1  UNL1        0.1218
      3 C         139.1987  142.1451  164.6316 C.ar    1  UNL1       -0.0071
      4 C         138.7092  140.8286  165.1582 C.ar    1  UNL1       -0.0031
      5 C         139.1909  140.3266  166.4870 C.ar    1  UNL1       -0.0003
      6 C         140.1621  141.1410  167.2892 C.ar    1  UNL1       -0.0001
      7 C         140.6516  142.4574  166.7626 C.ar    1  UNL1       -0.0031
      8 C         140.1699  142.9595  165.4338 C.ar    1  UNL1       -0.0071
      9 C         140.4742  144.2096  164.6628 C.3     1  UNL1        0.1218
     10 C         139.7001  146.2678  161.2415 C.3     1  UNL1        0.1960
     11 S         139.6956  145.2179  162.3128 S.O2    1  UNL1        0.0463
     12 O         141.1956  145.2132  162.3145 O.2     1  UNL1       -0.1572
     13 O         138.1956  145.2226  162.3112 O.2     1  UNL1       -0.1572
     14 C         140.6439  140.6389  168.6181 C.2     1  UNL1        0.0047
     15 C         141.9202  141.1680  169.2019 C.2     1  UNL1        0.0598
     16 C         142.4020  140.6659  170.5308 C.2     1  UNL1        0.2679
     17 O         141.6685  141.0401  171.7847 O.2     1  UNL1       -0.2681
     18 N         143.6171  139.7897  170.6059 N.am    1  UNL1       -0.1934
     19 O         144.0988  139.2876  171.9347 O.3     1  UNL1       -0.2949
     20 H         144.0985  139.5441  169.7829 H       1  UNL1        0.1825
     21 H         143.5167  139.6196  172.6361 H       1  UNL1        0.2414
@<TRIPOS>BOND
     1    10    11    1
     2    11    12    2
     3    11    13    2
     4    11     1    1
     5     1     2    1
     6     2     3    1
     7     3     4   ar
     8     4     5   ar
     9     5     6   ar
    10     6    14    1
    11    14    15    2
    12    15    16    1
    13    16    17    2
    14    16    18   am
    15    18    19    1
    16     6     7   ar
    17     7     8   ar
    18     8     9    1
    19     9     1    1
    20     8     3   ar
    21    18    20    1
    22    19    21    1
@<TRIPOS>MOLECULE
*****
 21 22 0 0 0
SMALL
GASTEIGER

@<TRIPOS>ATOM
      1 N         141.4442  144.4614  161.5358 N.3     1  UNL1       -0.1505
      2 C         142.8949  144.3180  161.8895 C.3     1  UNL1        0.1218
      3 C         142.9802  143.7550  163.2772 C.ar    1  UNL1       -0.0071
      4 C         144.1502  143.4022  164.1470 C.ar    1  UNL1       -0.0031
      5 C         143.9223  142.8447  165.5207 C.ar    1  UNL1       -0.0003
      6 C         142.5244  142.6402  166.0247 C.ar    1  UNL1       -0.0001
      7 C         141.3544  142.9930  165.1549 C.ar    1  UNL1       -0.0031
      8 C         141.5823  143.5504  163.7812 C.ar    1  UNL1       -0.0071
      9 C         140.6330  143.9870  162.7049 C.3     1  UNL1        0.1218
     10 C         140.3564  145.5125  158.9451 C.3     1  UNL1        0.1960
     11 S         140.9003  144.9870  160.2404 S.O2    1  UNL1        0.0463
     12 O         142.1947  144.6515  159.5608 O.2     1  UNL1       -0.1572
     13 O         139.6059  145.3224  160.9201 O.2     1  UNL1       -0.1572
     14 C         142.2965  142.0827  167.3986 C.2     1  UNL1        0.0047
     15 C         143.2771  142.3700  168.4967 C.2     1  UNL1        0.0598
     16 C         143.0492  141.8125  169.8705 C.2     1  UNL1        0.2679
     17 O         143.4491  140.4010  170.1830 O.2     1  UNL1       -0.2681
     18 N         142.4215  142.6666  170.9318 N.am    1  UNL1       -0.1934
     19 O         142.1936  142.1092  172.3056 O.3     1  UNL1       -0.2949
     20 H         142.1590  143.5931  170.7268 H       1  UNL1        0.1825
     21 H         142.5062  141.1915  172.3381 H       1  UNL1        0.2414
@<TRIPOS>BOND
     1    10    11    1
     2    11    12    2
     3    11    13    2
     4    11     1    1
     5     1     2    1
     6     2     3    1
     7     3     4   ar
     8     4     5   ar
     9     5     6   ar
    10     6    14    1
    11    14    15    2
    12    15    16    1
    13    16    17    2
    14    16    18   am
    15    18    19    1
    16     6     7   ar
    17     7     8   ar
    18     8     9    1
    19     9     1    1
    20     8     3   ar
    21    18    20    1
    22    19    21    1
@<TRIPOS>MOLECULE
*****
 21 22 0 0 0
SMALL
GASTEIGER

@<TRIPOS>ATOM
      1 N         138.7639  141.4441  162.2703 N.3     1  UNL1       -0.1505
      2 C         137.9967  140.3017  162.8671 C.3     1  UNL1        0.1218
      3 C         138.4554  140.1254  164.2844 C.ar    1  UNL1       -0.0071
      4 C         138.0521  139.1573  165.3568 C.ar    1  UNL1       -0.0031
      5 C         138.6994  139.2228  166.7083 C.ar    1  UNL1       -0.0003
      6 C         139.7501  140.2563  166.9874 C.ar    1  UNL1       -0.0001
      7 C         140.1535  141.2244  165.9149 C.ar    1  UNL1       -0.0031
      8 C         139.5061  141.1589  164.5635 C.ar    1  UNL1       -0.0071
      9 C         139.6968  141.9739  163.3187 C.3     1  UNL1        0.1218
     10 C         138.4821  142.4864  159.4713 C.3     1  UNL1        0.1960
     11 S         138.6230  141.9653  160.8708 S.O2    1  UNL1        0.0463
     12 O         139.2396  140.7053  160.3395 O.2     1  UNL1       -0.1572
     13 O         138.0065  143.2252  161.4021 O.2     1  UNL1       -0.1572
     14 C         140.3975  140.3217  168.3390 C.2     1  UNL1        0.0047
     15 C         140.0282  141.4168  169.2952 C.2     1  UNL1        0.0598
     16 C         140.6756  141.4822  170.6468 C.2     1  UNL1        0.2679
     17 O         140.2647  142.5429  171.6246 O.2     1  UNL1       -0.2681
     18 N         141.7338  140.4869  171.0205 N.am    1  UNL1       -0.1934
     19 O         142.3811  140.5524  172.3720 O.3     1  UNL1       -0.2949
     20 H         142.0035  139.7908  170.3787 H       1  UNL1        0.1825
     21 H         142.0035  141.2902  172.8760 H       1  UNL1        0.2414
@<TRIPOS>BOND
     1    10    11    1
     2    11    12    2
     3    11    13    2
     4    11     1    1
     5     1     2    1
     6     2     3    1
     7     3     4   ar
     8     4     5   ar
     9     5     6   ar
    10     6    14    1
    11    14    15    2
    12    15    16    1
    13    16    17    2
    14    16    18   am
    15    18    19    1
    16     6     7   ar
    17     7     8   ar
    18     8     9    1
    19     9     1    1
    20     8     3   ar
    21    18    20    1
    22    19    21    1
@<TRIPOS>MOLECULE
*****
 21 22 0 0 0
SMALL
GASTEIGER

@<TRIPOS>ATOM
      1 N         139.6265  138.9238  162.8059 N.3     1  UNL1       -0.1505
      2 C         138.4597  138.5998  163.6911 C.3     1  UNL1        0.1218
      3 C         138.8074  139.0195  165.0886 C.ar    1  UNL1       -0.0071
      4 C         138.0443  138.9457  166.3779 C.ar    1  UNL1       -0.0031
      5 C         138.6630  139.4554  167.6457 C.ar    1  UNL1       -0.0003
      6 C         140.0447  140.0389  167.6242 C.ar    1  UNL1       -0.0001
      7 C         140.8078  140.1126  166.3350 C.ar    1  UNL1       -0.0031
      8 C         140.1891  139.6029  165.0671 C.ar    1  UNL1       -0.0071
      9 C         140.6953  139.5438  163.6564 C.3     1  UNL1        0.1218
     10 C         139.7933  138.4204  159.8532 C.3     1  UNL1        0.1960
     11 S         139.7099  138.6721  161.3296 S.O2    1  UNL1        0.0463
     12 O         141.1930  138.4800  161.4461 O.2     1  UNL1       -0.1572
     13 O         138.2268  138.8642  161.2130 O.2     1  UNL1       -0.1572
     14 C         140.6633  140.5486  168.8921 C.2     1  UNL1        0.0047
     15 C         140.8335  142.0239  169.1033 C.2     1  UNL1        0.0598
     16 C         141.4522  142.5336  170.3713 C.2     1  UNL1        0.2679
     17 O         140.8368  142.1924  171.6960 O.2     1  UNL1       -0.2681
     18 N         142.6862  143.3844  170.3144 N.am    1  UNL1       -0.1934
     19 O         143.3048  143.8941  171.5823 O.3     1  UNL1       -0.2949
     20 H         143.0901  143.6083  169.4450 H       1  UNL1        0.1825
     21 H         142.7871  143.5844  172.3419 H       1  UNL1        0.2414
@<TRIPOS>BOND
     1    10    11    1
     2    11    12    2
     3    11    13    2
     4    11     1    1
     5     1     2    1
     6     2     3    1
     7     3     4   ar
     8     4     5   ar
     9     5     6   ar
    10     6    14    1
    11    14    15    2
    12    15    16    1
    13    16    17    2
    14    16    18   am
    15    18    19    1
    16     6     7   ar
    17     7     8   ar
    18     8     9    1
    19     9     1    1
    20     8     3   ar
    21    18    20    1
    22    19    21    1
@<TRIPOS>MOLECULE
*****
 21 22 0 0 0
SMALL
GASTEIGER

@<TRIPOS>ATOM
      1 N         140.9645  141.6092  165.1673 N.3     1  UNL1       -0.1505
      2 C         141.1708  142.5842  166.2884 C.3     1  UNL1        0.1218
      3 C         140.5413  142.0107  167.5232 C.ar    1  UNL1       -0.0071
      4 C         140.4333  142.5273  168.9273 C.ar    1  UNL1       -0.0031
      5 C         139.7299  141.7144  169.9735 C.ar    1  UNL1       -0.0003
      6 C         139.1346  140.3850  169.6156 C.ar    1  UNL1       -0.0001
      7 C         139.2426  139.8684  168.2115 C.ar    1  UNL1       -0.0031
      8 C         139.9459  140.6812  167.1654 C.ar    1  UNL1       -0.0071
      9 C         140.2075  140.4331  165.7093 C.3     1  UNL1        0.1218
     10 C         141.9014  141.9513  162.3380 C.3     1  UNL1        0.1960
     11 S         141.4329  141.7802  163.7526 S.O2    1  UNL1        0.0463
     12 O         142.8449  141.5233  164.1891 O.2     1  UNL1       -0.1572
     13 O         140.0210  142.0371  163.3162 O.2     1  UNL1       -0.1572
     14 C         138.4312  139.5721  170.6618 C.2     1  UNL1        0.0047
     15 C         137.0483  139.0519  170.4032 C.2     1  UNL1        0.0598
     16 C         136.3449  138.2390  171.4495 C.2     1  UNL1        0.2679
     17 O         136.8299  136.8581  171.7779 O.2     1  UNL1       -0.2681
     18 N         135.1566  138.8070  172.1672 N.am    1  UNL1       -0.1934
     19 O         134.4533  137.9942  173.2134 O.3     1  UNL1       -0.2949
     20 H         134.8383  139.7134  171.9517 H       1  UNL1        0.1825
     21 H         134.8907  137.1329  173.3019 H       1  UNL1        0.2414
@<TRIPOS>BOND
     1    10    11    1
     2    11    12    2
     3    11    13    2
     4    11     1    1
     5     1     2    1
     6     2     3    1
     7     3     4   ar
     8     4     5   ar
     9     5     6   ar
    10     6    14    1
    11    14    15    2
    12    15    16    1
    13    16    17    2
    14    16    18   am
    15    18    19    1
    16     6     7   ar
    17     7     8   ar
    18     8     9    1
    19     9     1    1
    20     8     3   ar
    21    18    20    1
    22    19    21    1
