@<TRIPOS>MOLECULE
*****
 25 28 0 0 0
SMALL
GASTEIGER

@<TRIPOS>ATOM
      1 N         141.6518  141.1113  165.8674 N.pl3   1  UNL1       -0.2860
      2 C         142.9411  141.2428  165.1121 C.ar    1  UNL1        0.0576
      3 C         143.7973  142.4606  165.2960 C.ar    1  UNL1        0.0153
      4 C         145.0865  142.5920  164.5407 C.ar    1  UNL1        0.0013
      5 C         145.5197  141.5055  163.6016 C.ar    1  UNL1        0.0006
      6 C         144.6636  140.2877  163.4177 C.ar    1  UNL1        0.0077
      7 C         143.3743  140.1563  164.1730 C.ar    1  UNL1        0.0431
      8 S         142.5181  138.9384  163.9891 S.3     1  UNL1       -0.0844
      9 C         141.2288  138.8070  164.7443 C.ar    1  UNL1        0.0431
     10 C         140.3726  137.5891  164.5605 C.ar    1  UNL1        0.0086
     11 C         139.0833  137.4578  165.3157 C.ar    1  UNL1        0.0120
     12 C         138.6502  138.5442  166.2549 C.ar    1  UNL1        0.0589
     13 CL        137.3609  138.4128  167.0101 Cl      1  UNL1       -0.0822
     14 C         139.5063  139.7621  166.4388 C.ar    1  UNL1        0.0267
     15 C         140.7957  139.8935  165.6835 C.ar    1  UNL1        0.0585
     16 C         141.2186  142.1978  166.8065 C.3     1  UNL1        0.0970
     17 C         140.1939  143.2022  166.3698 C.3     1  UNL1        0.0391
     18 C         140.1144  143.6151  164.9299 C.3     1  UNL1        0.0739
     19 C         137.5501  139.9795  160.9040 C.3     1  UNL1        0.0897
     20 N         138.1912  140.8884  161.9105 N.3     1  UNL1       -0.2691
     21 C         139.6050  141.3486  161.7122 C.3     1  UNL1        0.0897
     22 C         140.2461  142.2575  162.7186 C.3     1  UNL1        0.0897
     23 N         139.4733  142.7062  163.9234 N.3     1  UNL1       -0.2703
     24 C         138.0595  142.2460  164.1217 C.3     1  UNL1        0.0897
     25 C         137.4184  141.3371  163.1153 C.3     1  UNL1        0.0897
@<TRIPOS>BOND
     1    19    20    1
     2    20    21    1
     3    21    22    1
     4    22    23    1
     5    23    18    1
     6    18    17    1
     7    17    16    1
     8    16     1    1
     9     1     2    1
    10     2     3   ar
    11     3     4   ar
    12     4     5   ar
    13     5     6   ar
    14     6     7   ar
    15     7     8    1
    16     8     9    1
    17     9    10   ar
    18    10    11   ar
    19    11    12   ar
    20    12    13    1
    21    12    14   ar
    22    14    15   ar
    23    23    24    1
    24    24    25    1
    25    25    20    1
    26    15     1    1
    27     7     2   ar
    28    15     9   ar
@<TRIPOS>MOLECULE
*****
 25 28 0 0 0
SMALL
GASTEIGER

@<TRIPOS>ATOM
      1 N         140.8067  142.3229  165.0459 N.pl3   1  UNL1       -0.2860
      2 C         141.9203  142.7515  164.1369 C.ar    1  UNL1        0.0576
      3 C         142.3784  144.1798  164.1340 C.ar    1  UNL1        0.0153
      4 C         143.4920  144.6084  163.2251 C.ar    1  UNL1        0.0013
      5 C         144.1475  143.6086  162.3190 C.ar    1  UNL1        0.0006
      6 C         143.6893  142.1803  162.3219 C.ar    1  UNL1        0.0077
      7 C         142.5757  141.7518  163.2309 C.ar    1  UNL1        0.0431
      8 S         142.1176  140.3234  163.2338 S.3     1  UNL1       -0.0844
      9 C         141.0040  139.8949  164.1427 C.ar    1  UNL1        0.0431
     10 C         140.5458  138.4665  164.1457 C.ar    1  UNL1        0.0086
     11 C         139.4322  138.0379  165.0546 C.ar    1  UNL1        0.0120
     12 C         138.7768  139.0377  165.9607 C.ar    1  UNL1        0.0589
     13 CL        137.6632  138.6091  166.8696 Cl      1  UNL1       -0.0822
     14 C         139.2349  140.4660  165.9578 C.ar    1  UNL1        0.0267
     15 C         140.3485  140.8946  165.0488 C.ar    1  UNL1        0.0585
     16 C         140.1512  143.3226  165.9520 C.3     1  UNL1        0.0970
     17 C         139.0757  144.2236  165.4215 C.3     1  UNL1        0.0391
     18 C         138.3150  143.8376  164.1877 C.3     1  UNL1        0.0739
     19 C         140.4944  145.2084  158.7681 C.3     1  UNL1        0.0897
     20 N         139.9495  144.8656  160.1230 N.3     1  UNL1       -0.2691
     21 C         139.8842  145.9153  161.1926 C.3     1  UNL1        0.0897
     22 C         139.3393  145.5727  162.5474 C.3     1  UNL1        0.0897
     23 N         138.8599  144.1803  162.8327 N.3     1  UNL1       -0.2703
     24 C         138.9252  143.1307  161.7632 C.3     1  UNL1        0.0897
     25 C         139.4700  143.4733  160.4083 C.3     1  UNL1        0.0897
@<TRIPOS>BOND
     1    19    20    1
     2    20    21    1
     3    21    22    1
     4    22    23    1
     5    23    18    1
     6    18    17    1
     7    17    16    1
     8    16     1    1
     9     1     2    1
    10     2     3   ar
    11     3     4   ar
    12     4     5   ar
    13     5     6   ar
    14     6     7   ar
    15     7     8    1
    16     8     9    1
    17     9    10   ar
    18    10    11   ar
    19    11    12   ar
    20    12    13    1
    21    12    14   ar
    22    14    15   ar
    23    23    24    1
    24    24    25    1
    25    25    20    1
    26    15     1    1
    27     7     2   ar
    28    15     9   ar
@<TRIPOS>MOLECULE
*****
 25 28 0 0 0
SMALL
GASTEIGER

@<TRIPOS>ATOM
      1 N         140.1725  140.8514  165.3139 N.pl3   1  UNL1       -0.2860
      2 C         139.6362  141.9669  164.4662 C.ar    1  UNL1        0.0576
      3 C         138.2152  142.4177  164.6312 C.ar    1  UNL1        0.0153
      4 C         137.6790  143.5330  163.7836 C.ar    1  UNL1        0.0013
      5 C         138.5639  144.1976  162.7710 C.ar    1  UNL1        0.0006
      6 C         139.9850  143.7468  162.6061 C.ar    1  UNL1        0.0077
      7 C         140.5212  142.6314  163.4537 C.ar    1  UNL1        0.0431
      8 S         141.9423  142.1806  163.2888 S.3     1  UNL1       -0.0844
      9 C         142.4785  141.0652  164.1364 C.ar    1  UNL1        0.0431
     10 C         143.8996  140.6143  163.9714 C.ar    1  UNL1        0.0086
     11 C         144.4358  139.4990  164.8190 C.ar    1  UNL1        0.0120
     12 C         143.5508  138.8344  165.8316 C.ar    1  UNL1        0.0589
     13 CL        144.0870  137.7191  166.6792 Cl      1  UNL1       -0.0822
     14 C         142.1298  139.2852  165.9965 C.ar    1  UNL1        0.0267
     15 C         141.5935  140.4006  165.1489 C.ar    1  UNL1        0.0585
     16 C         139.2875  140.1869  166.3264 C.3     1  UNL1        0.0970
     17 C         138.3050  139.1402  165.8918 C.3     1  UNL1        0.0391
     18 C         138.7670  137.9723  165.0716 C.3     1  UNL1        0.0739
     19 C         140.2116  138.7446  159.2995 C.3     1  UNL1        0.0897
     20 N         139.8504  138.5516  160.7425 N.3     1  UNL1       -0.2691
     21 C         140.7911  137.8293  161.6609 C.3     1  UNL1        0.0897
     22 C         140.4300  137.6362  163.1039 C.3     1  UNL1        0.0897
     23 N         139.1282  138.1654  163.6285 N.3     1  UNL1       -0.2703
     24 C         138.1875  138.8877  162.7101 C.3     1  UNL1        0.0897
     25 C         138.5486  139.0807  161.2671 C.3     1  UNL1        0.0897
@<TRIPOS>BOND
     1    19    20    1
     2    20    21    1
     3    21    22    1
     4    22    23    1
     5    23    18    1
     6    18    17    1
     7    17    16    1
     8    16     1    1
     9     1     2    1
    10     2     3   ar
    11     3     4   ar
    12     4     5   ar
    13     5     6   ar
    14     6     7   ar
    15     7     8    1
    16     8     9    1
    17     9    10   ar
    18    10    11   ar
    19    11    12   ar
    20    12    13    1
    21    12    14   ar
    22    14    15   ar
    23    23    24    1
    24    24    25    1
    25    25    20    1
    26    15     1    1
    27     7     2   ar
    28    15     9   ar
@<TRIPOS>MOLECULE
*****
 25 28 0 0 0
SMALL
GASTEIGER

@<TRIPOS>ATOM
      1 N         141.1580  141.0131  166.2604 N.pl3   1  UNL1       -0.2860
      2 C         142.3924  140.2387  165.9043 C.ar    1  UNL1        0.0576
      3 C         142.7032  138.9547  166.6148 C.ar    1  UNL1        0.0153
      4 C         143.9375  138.1804  166.2587 C.ar    1  UNL1        0.0013
      5 C         144.8610  138.6900  165.1921 C.ar    1  UNL1        0.0006
      6 C         144.5501  139.9740  164.4816 C.ar    1  UNL1        0.0077
      7 C         143.3158  140.7483  164.8378 C.ar    1  UNL1        0.0431
      8 S         143.0049  142.0323  164.1273 S.3     1  UNL1       -0.0844
      9 C         141.7706  142.8067  164.4834 C.ar    1  UNL1        0.0431
     10 C         141.4597  144.0907  163.7730 C.ar    1  UNL1        0.0086
     11 C         140.2254  144.8651  164.1291 C.ar    1  UNL1        0.0120
     12 C         139.3019  144.3554  165.1957 C.ar    1  UNL1        0.0589
     13 CL        138.0676  145.1298  165.5518 Cl      1  UNL1       -0.0822
     14 C         139.6128  143.0715  165.9061 C.ar    1  UNL1        0.0267
     15 C         140.8472  142.2971  165.5500 C.ar    1  UNL1        0.0585
     16 C         140.2346  140.5035  167.3270 C.3     1  UNL1        0.0970
     17 C         139.2458  139.4214  167.0087 C.3     1  UNL1        0.0391
     18 C         138.2010  139.6460  165.9561 C.3     1  UNL1        0.0739
     19 C         139.4133  138.4038  160.2126 C.3     1  UNL1        0.0897
     20 N         139.1102  138.7144  161.6486 N.3     1  UNL1       -0.2691
     21 C         138.3262  139.9437  162.0007 C.3     1  UNL1        0.0897
     22 C         138.0231  140.2543  163.4365 C.3     1  UNL1        0.0897
     23 N         138.5041  139.3355  164.5202 N.3     1  UNL1       -0.2703
     24 C         139.2881  138.1061  164.1681 C.3     1  UNL1        0.0897
     25 C         139.5912  137.7956  162.7323 C.3     1  UNL1        0.0897
@<TRIPOS>BOND
     1    19    20    1
     2    20    21    1
     3    21    22    1
     4    22    23    1
     5    23    18    1
     6    18    17    1
     7    17    16    1
     8    16     1    1
     9     1     2    1
    10     2     3   ar
    11     3     4   ar
    12     4     5   ar
    13     5     6   ar
    14     6     7   ar
    15     7     8    1
    16     8     9    1
    17     9    10   ar
    18    10    11   ar
    19    11    12   ar
    20    12    13    1
    21    12    14   ar
    22    14    15   ar
    23    23    24    1
    24    24    25    1
    25    25    20    1
    26    15     1    1
    27     7     2   ar
    28    15     9   ar
@<TRIPOS>MOLECULE
*****
 25 28 0 0 0
SMALL
GASTEIGER

@<TRIPOS>ATOM
      1 N         139.9329  138.2868  163.5638 N.pl3   1  UNL1       -0.2860
      2 C         139.7444  138.7850  164.9661 C.ar    1  UNL1        0.0576
      3 C         138.3953  138.7023  165.6164 C.ar    1  UNL1        0.0153
      4 C         138.2069  139.2005  167.0186 C.ar    1  UNL1        0.0013
      5 C         139.3676  139.7815  167.7705 C.ar    1  UNL1        0.0006
      6 C         140.7167  139.8642  167.1201 C.ar    1  UNL1        0.0077
      7 C         140.9051  139.3660  165.7179 C.ar    1  UNL1        0.0431
      8 S         142.2543  139.4487  165.0675 S.3     1  UNL1       -0.0844
      9 C         142.4427  138.9504  163.6653 C.ar    1  UNL1        0.0431
     10 C         143.7919  139.0331  163.0149 C.ar    1  UNL1        0.0086
     11 C         143.9804  138.5349  161.6127 C.ar    1  UNL1        0.0120
     12 C         142.8197  137.9539  160.8609 C.ar    1  UNL1        0.0589
     13 CL        143.0081  137.4557  159.4587 Cl      1  UNL1       -0.0822
     14 C         141.4706  137.8712  161.5112 C.ar    1  UNL1        0.0267
     15 C         141.2821  138.3695  162.9135 C.ar    1  UNL1        0.0585
     16 C         138.7723  137.7058  162.8119 C.3     1  UNL1        0.0970
     17 C         137.8710  138.6015  162.0148 C.3     1  UNL1        0.0391
     18 C         138.3965  139.8920  161.4594 C.3     1  UNL1        0.0739
     19 C         139.0637  144.6526  165.0501 C.3     1  UNL1        0.0897
     20 N         138.8969  143.4624  164.1524 N.3     1  UNL1       -0.2691
     21 C         137.5786  142.7496  164.0891 C.3     1  UNL1        0.0897
     22 C         137.4118  141.5595  163.1914 C.3     1  UNL1        0.0897
     23 N         138.5633  141.0822  162.3571 N.3     1  UNL1       -0.2703
     24 C         139.8816  141.7950  162.4205 C.3     1  UNL1        0.0897
     25 C         140.0484  142.9851  163.3181 C.3     1  UNL1        0.0897
@<TRIPOS>BOND
     1    19    20    1
     2    20    21    1
     3    21    22    1
     4    22    23    1
     5    23    18    1
     6    18    17    1
     7    17    16    1
     8    16     1    1
     9     1     2    1
    10     2     3   ar
    11     3     4   ar
    12     4     5   ar
    13     5     6   ar
    14     6     7   ar
    15     7     8    1
    16     8     9    1
    17     9    10   ar
    18    10    11   ar
    19    11    12   ar
    20    12    13    1
    21    12    14   ar
    22    14    15   ar
    23    23    24    1
    24    24    25    1
    25    25    20    1
    26    15     1    1
    27     7     2   ar
    28    15     9   ar
@<TRIPOS>MOLECULE
*****
 25 28 0 0 0
SMALL
GASTEIGER

@<TRIPOS>ATOM
      1 N         139.4686  140.2014  165.9292 N.pl3   1  UNL1       -0.2860
      2 C         138.8897  141.2487  165.0247 C.ar    1  UNL1        0.0576
      3 C         137.9055  140.8605  163.9613 C.ar    1  UNL1        0.0153
      4 C         137.3267  141.9077  163.0568 C.ar    1  UNL1        0.0013
      5 C         137.7319  143.3432  163.2157 C.ar    1  UNL1        0.0006
      6 C         138.7160  143.7314  164.2790 C.ar    1  UNL1        0.0077
      7 C         139.2949  142.6841  165.1835 C.ar    1  UNL1        0.0431
      8 S         140.2791  143.0723  166.2469 S.3     1  UNL1       -0.0844
      9 C         140.8580  142.0251  167.1514 C.ar    1  UNL1        0.0431
     10 C         141.8421  142.4133  168.2148 C.ar    1  UNL1        0.0086
     11 C         142.4210  141.3661  169.1193 C.ar    1  UNL1        0.0120
     12 C         142.0158  139.9306  168.9605 C.ar    1  UNL1        0.0589
     13 CL        142.5946  138.8834  169.8650 Cl      1  UNL1       -0.0822
     14 C         141.0316  139.5424  167.8971 C.ar    1  UNL1        0.0267
     15 C         140.4527  140.5896  166.9926 C.ar    1  UNL1        0.0585
     16 C         139.0633  138.7660  165.7704 C.3     1  UNL1        0.0970
     17 C         139.6858  137.9255  164.6952 C.3     1  UNL1        0.0391
     18 C         141.1447  137.5830  164.7612 C.3     1  UNL1        0.0739
     19 C         145.2454  141.5570  162.9196 C.3     1  UNL1        0.0897
     20 N         144.2202  140.5635  163.3800 N.3     1  UNL1       -0.2691
     21 C         144.5009  139.6921  164.5682 C.3     1  UNL1        0.0897
     22 C         143.4758  138.6986  165.0286 C.3     1  UNL1        0.0897
     23 N         142.1699  138.5765  164.3008 N.3     1  UNL1       -0.2703
     24 C         141.8892  139.4479  163.1126 C.3     1  UNL1        0.0897
     25 C         142.9143  140.4414  162.6522 C.3     1  UNL1        0.0897
@<TRIPOS>BOND
     1    19    20    1
     2    20    21    1
     3    21    22    1
     4    22    23    1
     5    23    18    1
     6    18    17    1
     7    17    16    1
     8    16     1    1
     9     1     2    1
    10     2     3   ar
    11     3     4   ar
    12     4     5   ar
    13     5     6   ar
    14     6     7   ar
    15     7     8    1
    16     8     9    1
    17     9    10   ar
    18    10    11   ar
    19    11    12   ar
    20    12    13    1
    21    12    14   ar
    22    14    15   ar
    23    23    24    1
    24    24    25    1
    25    25    20    1
    26    15     1    1
    27     7     2   ar
    28    15     9   ar
@<TRIPOS>MOLECULE
*****
 25 28 0 0 0
SMALL
GASTEIGER

@<TRIPOS>ATOM
      1 N         138.7029  141.5718  163.7039 N.pl3   1  UNL1       -0.2860
      2 C         139.4490  142.8323  163.3804 C.ar    1  UNL1        0.0576
      3 C         139.3139  143.4565  162.0231 C.ar    1  UNL1        0.0153
      4 C         140.0600  144.7169  161.6997 C.ar    1  UNL1        0.0013
      5 C         140.9411  145.3532  162.7335 C.ar    1  UNL1        0.0006
      6 C         141.0761  144.7291  164.0908 C.ar    1  UNL1        0.0077
      7 C         140.3300  143.4687  164.4142 C.ar    1  UNL1        0.0431
      8 S         140.4650  142.8445  165.7715 S.3     1  UNL1       -0.0844
      9 C         139.7190  141.5840  166.0950 C.ar    1  UNL1        0.0431
     10 C         139.8539  140.9598  167.4523 C.ar    1  UNL1        0.0086
     11 C         139.1079  139.6994  167.7757 C.ar    1  UNL1        0.0120
     12 C         138.2268  139.0631  166.7419 C.ar    1  UNL1        0.0589
     13 CL        137.4807  137.8027  167.0653 Cl      1  UNL1       -0.0822
     14 C         138.0918  139.6872  165.3846 C.ar    1  UNL1        0.0267
     15 C         138.8379  140.9477  165.0611 C.ar    1  UNL1        0.0585
     16 C         137.8218  140.9355  162.6700 C.3     1  UNL1        0.0970
     17 C         138.3030  139.7346  161.9109 C.3     1  UNL1        0.0391
     18 C         139.7654  139.5656  161.6233 C.3     1  UNL1        0.0739
     19 C         143.5602  138.2111  166.0692 C.3     1  UNL1        0.0897
     20 N         142.6115  138.5498  164.9577 N.3     1  UNL1       -0.2691
     21 C         141.4690  137.6309  164.6407 C.3     1  UNL1        0.0897
     22 C         140.5203  137.9695  163.5293 C.3     1  UNL1        0.0897
     23 N         140.7141  139.2269  162.7348 N.3     1  UNL1       -0.2703
     24 C         141.8566  140.1458  163.0517 C.3     1  UNL1        0.0897
     25 C         142.8053  139.8072  164.1632 C.3     1  UNL1        0.0897
@<TRIPOS>BOND
     1    19    20    1
     2    20    21    1
     3    21    22    1
     4    22    23    1
     5    23    18    1
     6    18    17    1
     7    17    16    1
     8    16     1    1
     9     1     2    1
    10     2     3   ar
    11     3     4   ar
    12     4     5   ar
    13     5     6   ar
    14     6     7   ar
    15     7     8    1
    16     8     9    1
    17     9    10   ar
    18    10    11   ar
    19    11    12   ar
    20    12    13    1
    21    12    14   ar
    22    14    15   ar
    23    23    24    1
    24    24    25    1
    25    25    20    1
    26    15     1    1
    27     7     2   ar
    28    15     9   ar
@<TRIPOS>MOLECULE
*****
 25 28 0 0 0
SMALL
GASTEIGER

@<TRIPOS>ATOM
      1 N         140.5718  141.7793  165.1253 N.pl3   1  UNL1       -0.2860
      2 C         139.9748  140.4040  165.1736 C.ar    1  UNL1        0.0576
      3 C         138.8548  140.1056  166.1256 C.ar    1  UNL1        0.0153
      4 C         138.2579  138.7304  166.1739 C.ar    1  UNL1        0.0013
      5 C         138.7810  137.6535  165.2702 C.ar    1  UNL1        0.0006
      6 C         139.9011  137.9519  164.3182 C.ar    1  UNL1        0.0077
      7 C         140.4980  139.3271  164.2699 C.ar    1  UNL1        0.0431
      8 S         141.6182  139.6256  163.3179 S.3     1  UNL1       -0.0844
      9 C         142.2151  141.0008  163.2696 C.ar    1  UNL1        0.0431
     10 C         143.3352  141.2992  162.3176 C.ar    1  UNL1        0.0086
     11 C         143.9321  142.6745  162.2693 C.ar    1  UNL1        0.0120
     12 C         143.4089  143.7513  163.1730 C.ar    1  UNL1        0.0589
     13 CL        144.0059  145.1266  163.1247 Cl      1  UNL1       -0.0822
     14 C         142.2889  143.4530  164.1250 C.ar    1  UNL1        0.0267
     15 C         141.6919  142.0777  164.1733 C.ar    1  UNL1        0.0585
     16 C         140.0486  142.8561  166.0290 C.3     1  UNL1        0.0970
     17 C         139.1399  143.9174  165.4832 C.3     1  UNL1        0.0391
     18 C         138.3239  143.6465  164.2541 C.3     1  UNL1        0.0739
     19 C         140.4971  145.0515  158.8408 C.3     1  UNL1        0.0897
     20 N         139.9538  144.7003  160.1941 N.3     1  UNL1       -0.2691
     21 C         139.9613  145.7209  161.2933 C.3     1  UNL1        0.0897
     22 C         139.4180  145.3697  162.6466 C.3     1  UNL1        0.0897
     23 N         138.8672  143.9978  162.9007 N.3     1  UNL1       -0.2703
     24 C         138.8597  142.9772  161.8015 C.3     1  UNL1        0.0897
     25 C         139.4030  143.3284  160.4482 C.3     1  UNL1        0.0897
@<TRIPOS>BOND
     1    19    20    1
     2    20    21    1
     3    21    22    1
     4    22    23    1
     5    23    18    1
     6    18    17    1
     7    17    16    1
     8    16     1    1
     9     1     2    1
    10     2     3   ar
    11     3     4   ar
    12     4     5   ar
    13     5     6   ar
    14     6     7   ar
    15     7     8    1
    16     8     9    1
    17     9    10   ar
    18    10    11   ar
    19    11    12   ar
    20    12    13    1
    21    12    14   ar
    22    14    15   ar
    23    23    24    1
    24    24    25    1
    25    25    20    1
    26    15     1    1
    27     7     2   ar
    28    15     9   ar
@<TRIPOS>MOLECULE
*****
 25 28 0 0 0
SMALL
GASTEIGER

@<TRIPOS>ATOM
      1 N         139.2858  140.4661  166.1013 N.pl3   1  UNL1       -0.2860
      2 C         138.9477  141.4254  164.9987 C.ar    1  UNL1        0.0576
      3 C         137.7465  141.1811  164.1342 C.ar    1  UNL1        0.0153
      4 C         137.4085  142.1403  163.0317 C.ar    1  UNL1        0.0013
      5 C         138.2716  143.3437  162.7936 C.ar    1  UNL1        0.0006
      6 C         139.4729  143.5880  163.6581 C.ar    1  UNL1        0.0077
      7 C         139.8109  142.6288  164.7606 C.ar    1  UNL1        0.0431
      8 S         141.0122  142.8730  165.6252 S.3     1  UNL1       -0.0844
      9 C         141.3502  141.9138  166.7277 C.ar    1  UNL1        0.0431
     10 C         142.5515  142.1581  167.5923 C.ar    1  UNL1        0.0086
     11 C         142.8896  141.1989  168.6948 C.ar    1  UNL1        0.0120
     12 C         142.0264  139.9954  168.9329 C.ar    1  UNL1        0.0589
     13 CL        142.3644  139.0363  170.0354 Cl      1  UNL1       -0.0822
     14 C         140.8252  139.7512  168.0684 C.ar    1  UNL1        0.0267
     15 C         140.4871  140.7104  166.9658 C.ar    1  UNL1        0.0585
     16 C         138.4227  139.2627  166.3394 C.3     1  UNL1        0.0970
     17 C         138.6286  138.0193  165.5261 C.3     1  UNL1        0.0391
     18 C         139.9449  137.7751  164.8494 C.3     1  UNL1        0.0739
     19 C         140.5749  138.9534  159.0000 C.3     1  UNL1        0.0897
     20 N         140.4174  138.6589  160.4624 N.3     1  UNL1       -0.2691
     21 C         139.1060  138.1562  160.9892 C.3     1  UNL1        0.0897
     22 C         138.9485  137.8617  162.4515 C.3     1  UNL1        0.0897
     23 N         140.1024  138.0697  163.3870 N.3     1  UNL1       -0.2703
     24 C         141.4138  138.5724  162.8602 C.3     1  UNL1        0.0897
     25 C         141.5713  138.8669  161.3979 C.3     1  UNL1        0.0897
@<TRIPOS>BOND
     1    19    20    1
     2    20    21    1
     3    21    22    1
     4    22    23    1
     5    23    18    1
     6    18    17    1
     7    17    16    1
     8    16     1    1
     9     1     2    1
    10     2     3   ar
    11     3     4   ar
    12     4     5   ar
    13     5     6   ar
    14     6     7   ar
    15     7     8    1
    16     8     9    1
    17     9    10   ar
    18    10    11   ar
    19    11    12   ar
    20    12    13    1
    21    12    14   ar
    22    14    15   ar
    23    23    24    1
    24    24    25    1
    25    25    20    1
    26    15     1    1
    27     7     2   ar
    28    15     9   ar
