@<TRIPOS>MOLECULE
*****
 29 33 0 0 0
SMALL
GASTEIGER

@<TRIPOS>ATOM
      1 N         141.8997  141.9630  165.1746 N.ar    1  UNL1       -0.2753
      2 C         141.3515  140.9754  164.1875 C.ar    1  UNL1        0.1497
      3 N         141.7401  141.4304  162.8121 N.ar    1  UNL1       -0.2220
      4 C         142.5285  142.6992  162.9491 C.ar    1  UNL1        0.1487
      5 C         143.1692  143.5974  161.9328 C.ar    1  UNL1        0.1543
      6 N         143.9086  144.8246  162.3767 N.ar    1  UNL1       -0.2073
      7 C         144.0072  145.1538  163.8368 C.ar    1  UNL1        0.2015
      8 N         143.3664  144.2556  164.8530 N.ar    1  UNL1       -0.2045
      9 C         142.6270  143.0283  164.4092 C.ar    1  UNL1        0.1711
     10 CL        141.2898  141.6984  171.1377 Cl      1  UNL1       -0.0822
     11 C         141.4423  141.7645  169.6469 C.ar    1  UNL1        0.0578
     12 C         140.5576  142.6696  168.8419 C.ar    1  UNL1        0.0129
     13 C         140.7100  142.7358  167.3512 C.ar    1  UNL1        0.0185
     14 C         141.7472  141.8968  166.6653 C.ar    1  UNL1        0.0668
     15 C         142.6319  140.9917  167.4703 C.ar    1  UNL1        0.0185
     16 C         142.4794  140.9256  168.9611 C.ar    1  UNL1        0.0129
     17 C         140.5547  139.7482  164.5180 C.ar    1  UNL1        0.0451
     18 C         141.1874  138.3923  164.4130 C.ar    1  UNL1        0.0038
     19 C         140.3905  137.1652  164.7435 C.ar    1  UNL1        0.0002
     20 C         138.9609  137.2941  165.1790 C.ar    1  UNL1        0.0009
     21 C         138.3282  138.6500  165.2840 C.ar    1  UNL1        0.0115
     22 C         139.1251  139.8770  164.9535 C.ar    1  UNL1        0.0606
     23 CL        138.4923  141.2331  165.0585 Cl      1  UNL1       -0.0821
     24 N         143.0706  143.2682  160.4727 N.pl3   1  UNL1       -0.2919
     25 C         141.8737  143.7092  159.6836 C.3     1  UNL1        0.0922
     26 C         141.7751  143.3800  158.2234 C.3     1  UNL1        0.0215
     27 C         142.8735  142.6098  157.5524 C.3     1  UNL1        0.0035
     28 C         144.0705  142.1687  158.3416 C.3     1  UNL1        0.0215
     29 C         144.1690  142.4979  159.8017 C.3     1  UNL1        0.0922
@<TRIPOS>BOND
     1    10    11    1
     2    11    12   ar
     3    12    13   ar
     4    13    14   ar
     5    14     1    1
     6     1     2   ar
     7     2    17    1
     8    17    18   ar
     9    18    19   ar
    10    19    20   ar
    11    20    21   ar
    12    21    22   ar
    13    22    23    1
    14     2     3   ar
    15     3     4   ar
    16     4     5   ar
    17     5    24    1
    18    24    25    1
    19    25    26    1
    20    26    27    1
    21    27    28    1
    22    28    29    1
    23     5     6   ar
    24     6     7   ar
    25     7     8   ar
    26     8     9   ar
    27    14    15   ar
    28    15    16   ar
    29    16    11   ar
    30     9     1   ar
    31    22    17   ar
    32     9     4   ar
    33    29    24    1
@<TRIPOS>MOLECULE
*****
 29 33 0 0 0
SMALL
GASTEIGER

@<TRIPOS>ATOM
      1 N         140.6040  140.0045  163.9710 N.ar    1  UNL1       -0.2753
      2 C         141.7380  140.8456  164.4774 C.ar    1  UNL1        0.1497
      3 N         141.5992  140.9631  165.9663 N.ar    1  UNL1       -0.2220
      4 C         140.3792  140.1945  166.3801 C.ar    1  UNL1        0.1487
      5 C         139.7490  139.9576  167.7205 C.ar    1  UNL1        0.1543
      6 N         138.5037  139.1283  167.8277 N.ar    1  UNL1       -0.2073
      7 C         137.8887  138.5359  166.5945 C.ar    1  UNL1        0.2015
      8 N         138.5189  138.7728  165.2541 N.ar    1  UNL1       -0.2045
      9 C         139.7642  139.6021  165.1469 C.ar    1  UNL1        0.1711
     10 CL        139.6026  138.5118  158.2465 Cl      1  UNL1       -0.0822
     11 C         139.8530  138.8850  159.6776 C.ar    1  UNL1        0.0578
     12 C         138.8483  139.7118  160.4239 C.ar    1  UNL1        0.0129
     13 C         139.0986  140.0850  161.8550 C.ar    1  UNL1        0.0185
     14 C         140.3536  139.6314  162.5399 C.ar    1  UNL1        0.0668
     15 C         141.3583  138.8045  161.7936 C.ar    1  UNL1        0.0185
     16 C         141.1080  138.4313  160.3625 C.ar    1  UNL1        0.0129
     17 C         142.8209  141.4612  163.6416 C.ar    1  UNL1        0.0451
     18 C         142.5381  142.6963  162.8387 C.ar    1  UNL1        0.0038
     19 C         143.6209  143.3118  162.0030 C.ar    1  UNL1        0.0002
     20 C         144.9866  142.6923  161.9700 C.ar    1  UNL1        0.0009
     21 C         145.2694  141.4572  162.7729 C.ar    1  UNL1        0.0115
     22 C         144.1866  140.8417  163.6086 C.ar    1  UNL1        0.0606
     23 CL        144.4694  139.6066  164.4115 Cl      1  UNL1       -0.0821
     24 N         140.3641  140.5500  168.9537 N.pl3   1  UNL1       -0.2919
     25 C         141.5865  139.9241  169.5569 C.3     1  UNL1        0.0922
     26 C         142.2016  140.5166  170.7901 C.3     1  UNL1        0.0215
     27 C         141.5942  141.7349  171.4201 C.3     1  UNL1        0.0035
     28 C         140.3717  142.3607  170.8168 C.3     1  UNL1        0.0215
     29 C         139.7567  141.7683  169.5836 C.3     1  UNL1        0.0922
@<TRIPOS>BOND
     1    10    11    1
     2    11    12   ar
     3    12    13   ar
     4    13    14   ar
     5    14     1    1
     6     1     2   ar
     7     2    17    1
     8    17    18   ar
     9    18    19   ar
    10    19    20   ar
    11    20    21   ar
    12    21    22   ar
    13    22    23    1
    14     2     3   ar
    15     3     4   ar
    16     4     5   ar
    17     5    24    1
    18    24    25    1
    19    25    26    1
    20    26    27    1
    21    27    28    1
    22    28    29    1
    23     5     6   ar
    24     6     7   ar
    25     7     8   ar
    26     8     9   ar
    27    14    15   ar
    28    15    16   ar
    29    16    11   ar
    30     9     1   ar
    31    22    17   ar
    32     9     4   ar
    33    29    24    1
@<TRIPOS>MOLECULE
*****
 29 33 0 0 0
SMALL
GASTEIGER

@<TRIPOS>ATOM
      1 N         140.7188  142.4127  163.8440 N.ar    1  UNL1       -0.2753
      2 C         140.5080  141.1740  163.0247 C.ar    1  UNL1        0.1497
      3 N         140.1230  141.5956  161.6377 N.ar    1  UNL1       -0.2220
      4 C         140.0958  143.0950  161.5997 C.ar    1  UNL1        0.1487
      5 C         139.7833  144.0656  160.4996 C.ar    1  UNL1        0.1543
      6 N         139.8391  145.5412  160.7631 N.ar    1  UNL1       -0.2073
      7 C         140.2074  146.0461  162.1266 C.ar    1  UNL1        0.2015
      8 N         140.5199  145.0755  163.2267 N.ar    1  UNL1       -0.2045
      9 C         140.4641  143.5999  162.9633 C.ar    1  UNL1        0.1711
     10 CL        142.3029  142.5881  169.6285 Cl      1  UNL1       -0.0822
     11 C         141.9069  142.5443  168.1824 C.ar    1  UNL1        0.0578
     12 C         142.9317  142.2290  167.1333 C.ar    1  UNL1        0.0129
     13 C         142.5356  142.1852  165.6872 C.ar    1  UNL1        0.0185
     14 C         141.1149  142.4566  165.2901 C.ar    1  UNL1        0.0668
     15 C         140.0901  142.7718  166.3391 C.ar    1  UNL1        0.0185
     16 C         140.4862  142.8157  167.7852 C.ar    1  UNL1        0.0129
     17 C         140.6562  139.7616  163.5078 C.ar    1  UNL1        0.0451
     18 C         141.8993  138.9858  163.1870 C.ar    1  UNL1        0.0038
     19 C         142.0474  137.5735  163.6701 C.ar    1  UNL1        0.0002
     20 C         140.9526  136.9370  164.4739 C.ar    1  UNL1        0.0009
     21 C         139.7095  137.7128  164.7947 C.ar    1  UNL1        0.0115
     22 C         139.5614  139.1251  164.3116 C.ar    1  UNL1        0.0606
     23 CL        138.3183  139.9010  164.6323 Cl      1  UNL1       -0.0821
     24 N         139.4151  143.5606  159.1360 N.pl3   1  UNL1       -0.2919
     25 C         140.1328  144.0788  157.9252 C.3     1  UNL1        0.0922
     26 C         139.7646  143.5738  156.5615 C.3     1  UNL1        0.0215
     27 C         138.6785  142.5505  156.4088 C.3     1  UNL1        0.0035
     28 C         137.9607  142.0322  157.6198 C.3     1  UNL1        0.0215
     29 C         138.3290  142.5372  158.9833 C.3     1  UNL1        0.0922
@<TRIPOS>BOND
     1    10    11    1
     2    11    12   ar
     3    12    13   ar
     4    13    14   ar
     5    14     1    1
     6     1     2   ar
     7     2    17    1
     8    17    18   ar
     9    18    19   ar
    10    19    20   ar
    11    20    21   ar
    12    21    22   ar
    13    22    23    1
    14     2     3   ar
    15     3     4   ar
    16     4     5   ar
    17     5    24    1
    18    24    25    1
    19    25    26    1
    20    26    27    1
    21    27    28    1
    22    28    29    1
    23     5     6   ar
    24     6     7   ar
    25     7     8   ar
    26     8     9   ar
    27    14    15   ar
    28    15    16   ar
    29    16    11   ar
    30     9     1   ar
    31    22    17   ar
    32     9     4   ar
    33    29    24    1
@<TRIPOS>MOLECULE
*****
 29 33 0 0 0
SMALL
GASTEIGER

@<TRIPOS>ATOM
      1 N         140.5232  142.0246  164.9151 N.ar    1  UNL1       -0.2753
      2 C         141.6289  141.6735  163.9642 C.ar    1  UNL1        0.1497
      3 N         141.3407  142.3403  162.6518 N.ar    1  UNL1       -0.2220
      4 C         140.0569  143.1035  162.7917 C.ar    1  UNL1        0.1487
      5 C         139.2827  143.9509  161.8261 C.ar    1  UNL1        0.1543
      6 N         138.0033  144.6031  162.2592 N.ar    1  UNL1       -0.2073
      7 C         137.4981  144.4080  163.6580 C.ar    1  UNL1        0.2015
      8 N         138.2723  143.5606  164.6236 N.ar    1  UNL1       -0.2045
      9 C         139.5517  142.9083  164.1905 C.ar    1  UNL1        0.1711
     10 CL        140.0668  140.2120  170.6166 Cl      1  UNL1       -0.0822
     11 C         140.1809  140.6652  169.1912 C.ar    1  UNL1        0.0578
     12 C         139.4291  139.9435  168.1123 C.ar    1  UNL1        0.0129
     13 C         139.5432  140.3967  166.6870 C.ar    1  UNL1        0.0185
     14 C         140.4091  141.5714  166.3405 C.ar    1  UNL1        0.0668
     15 C         141.1609  142.2931  167.4194 C.ar    1  UNL1        0.0185
     16 C         141.0468  141.8399  168.8447 C.ar    1  UNL1        0.0129
     17 C         142.8146  140.8077  164.2717 C.ar    1  UNL1        0.0451
     18 C         142.6192  139.4755  164.9327 C.ar    1  UNL1        0.0038
     19 C         143.8048  138.6097  165.2402 C.ar    1  UNL1        0.0002
     20 C         145.1859  139.0761  164.8866 C.ar    1  UNL1        0.0009
     21 C         145.3814  140.4083  164.2255 C.ar    1  UNL1        0.0115
     22 C         144.1957  141.2741  163.9181 C.ar    1  UNL1        0.0606
     23 CL        144.3911  142.6064  163.2570 Cl      1  UNL1       -0.0821
     24 N         139.7880  144.1461  160.4272 N.pl3   1  UNL1       -0.2919
     25 C         140.7021  145.2931  160.1132 C.3     1  UNL1        0.0922
     26 C         141.2074  145.4882  158.7143 C.3     1  UNL1        0.0215
     27 C         140.7984  144.5363  157.6296 C.3     1  UNL1        0.0035
     28 C         139.8842  143.3892  157.9437 C.3     1  UNL1        0.0215
     29 C         139.3790  143.1941  159.3425 C.3     1  UNL1        0.0922
@<TRIPOS>BOND
     1    10    11    1
     2    11    12   ar
     3    12    13   ar
     4    13    14   ar
     5    14     1    1
     6     1     2   ar
     7     2    17    1
     8    17    18   ar
     9    18    19   ar
    10    19    20   ar
    11    20    21   ar
    12    21    22   ar
    13    22    23    1
    14     2     3   ar
    15     3     4   ar
    16     4     5   ar
    17     5    24    1
    18    24    25    1
    19    25    26    1
    20    26    27    1
    21    27    28    1
    22    28    29    1
    23     5     6   ar
    24     6     7   ar
    25     7     8   ar
    26     8     9   ar
    27    14    15   ar
    28    15    16   ar
    29    16    11   ar
    30     9     1   ar
    31    22    17   ar
    32     9     4   ar
    33    29    24    1
@<TRIPOS>MOLECULE
*****
 29 33 0 0 0
SMALL
GASTEIGER

@<TRIPOS>ATOM
      1 N         140.2537  140.6221  163.9789 N.ar    1  UNL1       -0.2753
      2 C         141.4346  141.3901  164.4944 C.ar    1  UNL1        0.1497
      3 N         141.4401  141.2828  165.9905 N.ar    1  UNL1       -0.2220
      4 C         140.2625  140.4485  166.3997 C.ar    1  UNL1        0.1487
      5 C         139.7632  140.0079  167.7437 C.ar    1  UNL1        0.1543
      6 N         138.5306  139.1590  167.8446 N.ar    1  UNL1       -0.2073
      7 C         137.7974  138.7507  166.6014 C.ar    1  UNL1        0.2015
      8 N         138.2968  139.1913  165.2573 N.ar    1  UNL1       -0.2045
      9 C         139.5293  140.0402  165.1564 C.ar    1  UNL1        0.1711
     10 CL        138.7002  139.9891  158.2181 Cl      1  UNL1       -0.0822
     11 C         139.0886  140.1473  159.6583 C.ar    1  UNL1        0.0578
     12 C         138.9369  141.4778  160.3342 C.ar    1  UNL1        0.0129
     13 C         139.3253  141.6361  161.7744 C.ar    1  UNL1        0.0185
     14 C         139.8653  140.4639  162.5387 C.ar    1  UNL1        0.0668
     15 C         140.0169  139.1334  161.8629 C.ar    1  UNL1        0.0185
     16 C         139.6286  138.9751  160.4227 C.ar    1  UNL1        0.0129
     17 C         142.4345  142.1346  163.6601 C.ar    1  UNL1        0.0451
     18 C         143.5217  141.3866  162.9470 C.ar    1  UNL1        0.0038
     19 C         144.5215  142.1311  162.1128 C.ar    1  UNL1        0.0002
     20 C         144.4342  143.6237  161.9917 C.ar    1  UNL1        0.0009
     21 C         143.3470  144.3717  162.7047 C.ar    1  UNL1        0.0115
     22 C         142.3472  143.6272  163.5389 C.ar    1  UNL1        0.0606
     23 CL        141.2600  144.3752  164.2521 Cl      1  UNL1       -0.0821
     24 N         140.4964  140.4162  168.9870 N.pl3   1  UNL1       -0.2919
     25 C         139.9075  141.4509  169.8995 C.3     1  UNL1        0.0922
     26 C         140.6408  141.8592  171.1427 C.3     1  UNL1        0.0215
     27 C         141.9630  141.2328  171.4735 C.3     1  UNL1        0.0035
     28 C         142.5519  140.1981  170.5610 C.3     1  UNL1        0.0215
     29 C         141.8187  139.7898  169.3178 C.3     1  UNL1        0.0922
@<TRIPOS>BOND
     1    10    11    1
     2    11    12   ar
     3    12    13   ar
     4    13    14   ar
     5    14     1    1
     6     1     2   ar
     7     2    17    1
     8    17    18   ar
     9    18    19   ar
    10    19    20   ar
    11    20    21   ar
    12    21    22   ar
    13    22    23    1
    14     2     3   ar
    15     3     4   ar
    16     4     5   ar
    17     5    24    1
    18    24    25    1
    19    25    26    1
    20    26    27    1
    21    27    28    1
    22    28    29    1
    23     5     6   ar
    24     6     7   ar
    25     7     8   ar
    26     8     9   ar
    27    14    15   ar
    28    15    16   ar
    29    16    11   ar
    30     9     1   ar
    31    22    17   ar
    32     9     4   ar
    33    29    24    1
@<TRIPOS>MOLECULE
*****
 29 33 0 0 0
SMALL
GASTEIGER

@<TRIPOS>ATOM
      1 N         140.8309  140.6409  164.6422 N.ar    1  UNL1       -0.2753
      2 C         141.2416  141.6200  163.5826 C.ar    1  UNL1        0.1497
      3 N         140.6718  141.1544  162.2755 N.ar    1  UNL1       -0.2220
      4 C         139.9089  139.8876  162.5273 C.ar    1  UNL1        0.1487
      5 C         139.1374  138.9821  161.6136 C.ar    1  UNL1        0.1543
      6 N         138.4642  137.7593  162.1627 N.ar    1  UNL1       -0.2073
      7 C         138.5626  137.4420  163.6254 C.ar    1  UNL1        0.2015
      8 N         139.3341  138.3475  164.5391 N.ar    1  UNL1       -0.2045
      9 C         140.0072  139.5703  163.9900 C.ar    1  UNL1        0.1711
     10 CL        142.2360  140.9525  170.4671 Cl      1  UNL1       -0.0822
     11 C         141.8847  140.8746  169.0109 C.ar    1  UNL1        0.0578
     12 C         140.9370  141.8721  168.4136 C.ar    1  UNL1        0.0129
     13 C         140.5858  141.7942  166.9574 C.ar    1  UNL1        0.0185
     14 C         141.1821  140.7188  166.0984 C.ar    1  UNL1        0.0668
     15 C         142.1298  139.7213  166.6958 C.ar    1  UNL1        0.0185
     16 C         142.4811  139.7992  168.1520 C.ar    1  UNL1        0.0129
     17 C         142.0757  142.8488  163.7931 C.ar    1  UNL1        0.0451
     18 C         141.4516  144.2078  163.6772 C.ar    1  UNL1        0.0038
     19 C         142.2857  145.4366  163.8878 C.ar    1  UNL1        0.0002
     20 C         143.7439  145.3063  164.2143 C.ar    1  UNL1        0.0009
     21 C         144.3680  143.9473  164.3302 C.ar    1  UNL1        0.0115
     22 C         143.5339  142.7185  164.1197 C.ar    1  UNL1        0.0606
     23 CL        144.1580  141.3594  164.2356 Cl      1  UNL1       -0.0821
     24 N         139.0391  139.2995  160.1508 N.pl3   1  UNL1       -0.2919
     25 C         138.1007  140.3694  159.6770 C.3     1  UNL1        0.0922
     26 C         138.0024  140.6868  158.2142 C.3     1  UNL1        0.0215
     27 C         138.8425  139.9342  157.2253 C.3     1  UNL1        0.0035
     28 C         139.7809  138.8642  157.6993 C.3     1  UNL1        0.0215
     29 C         139.8792  138.5469  159.1620 C.3     1  UNL1        0.0922
@<TRIPOS>BOND
     1    10    11    1
     2    11    12   ar
     3    12    13   ar
     4    13    14   ar
     5    14     1    1
     6     1     2   ar
     7     2    17    1
     8    17    18   ar
     9    18    19   ar
    10    19    20   ar
    11    20    21   ar
    12    21    22   ar
    13    22    23    1
    14     2     3   ar
    15     3     4   ar
    16     4     5   ar
    17     5    24    1
    18    24    25    1
    19    25    26    1
    20    26    27    1
    21    27    28    1
    22    28    29    1
    23     5     6   ar
    24     6     7   ar
    25     7     8   ar
    26     8     9   ar
    27    14    15   ar
    28    15    16   ar
    29    16    11   ar
    30     9     1   ar
    31    22    17   ar
    32     9     4   ar
    33    29    24    1
@<TRIPOS>MOLECULE
*****
 29 33 0 0 0
SMALL
GASTEIGER

@<TRIPOS>ATOM
      1 N         142.0330  141.0344  163.8265 N.ar    1  UNL1       -0.2753
      2 C         141.2768  142.1586  164.4701 C.ar    1  UNL1        0.1497
      3 N         141.3249  141.9589  165.9559 N.ar    1  UNL1       -0.2220
      4 C         142.1109  140.7111  166.2306 C.ar    1  UNL1        0.1487
      5 C         142.4846  140.0214  167.5091 C.ar    1  UNL1        0.1543
      6 N         143.2959  138.7603  167.4716 N.ar    1  UNL1       -0.2073
      7 C         143.7335  138.1889  166.1556 C.ar    1  UNL1        0.2015
      8 N         143.3598  138.8787  164.8770 N.ar    1  UNL1       -0.2045
      9 C         142.5485  140.1397  164.9146 C.ar    1  UNL1        0.1711
     10 CL        142.8522  140.2529  157.9342 Cl      1  UNL1       -0.0822
     11 C         142.6474  140.4482  159.4073 C.ar    1  UNL1        0.0578
     12 C         141.3106  140.1598  160.0234 C.ar    1  UNL1        0.0129
     13 C         141.1058  140.3552  161.4965 C.ar    1  UNL1        0.0185
     14 C         142.2378  140.8390  162.3534 C.ar    1  UNL1        0.0668
     15 C         143.5747  141.1274  161.7373 C.ar    1  UNL1        0.0185
     16 C         143.7794  140.9320  160.2643 C.ar    1  UNL1        0.0129
     17 C         140.5926  143.2850  163.7535 C.ar    1  UNL1        0.0451
     18 C         141.3950  144.4413  163.2349 C.ar    1  UNL1        0.0038
     19 C         140.7109  145.5675  162.5184 C.ar    1  UNL1        0.0002
     20 C         139.2243  145.5375  162.3206 C.ar    1  UNL1        0.0009
     21 C         138.4219  144.3812  162.8392 C.ar    1  UNL1        0.0115
     22 C         139.1061  143.2549  163.5557 C.ar    1  UNL1        0.0606
     23 CL        138.3036  142.0985  164.0745 Cl      1  UNL1       -0.0821
     24 N         142.0470  140.5928  168.8252 N.pl3   1  UNL1       -0.2919
     25 C         142.6852  141.8453  169.3485 C.3     1  UNL1        0.0922
     26 C         142.2476  142.4167  170.6646 C.3     1  UNL1        0.0215
     27 C         141.1717  141.7355  171.4574 C.3     1  UNL1        0.0035
     28 C         140.5334  140.4830  170.9340 C.3     1  UNL1        0.0215
     29 C         140.9711  139.9116  169.6180 C.3     1  UNL1        0.0922
@<TRIPOS>BOND
     1    10    11    1
     2    11    12   ar
     3    12    13   ar
     4    13    14   ar
     5    14     1    1
     6     1     2   ar
     7     2    17    1
     8    17    18   ar
     9    18    19   ar
    10    19    20   ar
    11    20    21   ar
    12    21    22   ar
    13    22    23    1
    14     2     3   ar
    15     3     4   ar
    16     4     5   ar
    17     5    24    1
    18    24    25    1
    19    25    26    1
    20    26    27    1
    21    27    28    1
    22    28    29    1
    23     5     6   ar
    24     6     7   ar
    25     7     8   ar
    26     8     9   ar
    27    14    15   ar
    28    15    16   ar
    29    16    11   ar
    30     9     1   ar
    31    22    17   ar
    32     9     4   ar
    33    29    24    1
@<TRIPOS>MOLECULE
*****
 29 33 0 0 0
SMALL
GASTEIGER

@<TRIPOS>ATOM
      1 N         143.0844  139.8605  160.7870 N.ar    1  UNL1       -0.2753
      2 C         142.1911  138.6649  160.9380 C.ar    1  UNL1        0.1497
      3 N         142.1238  137.9662  159.6124 N.ar    1  UNL1       -0.2220
      4 C         142.9755  138.7300  158.6422 C.ar    1  UNL1        0.1487
      5 C         143.2872  138.5106  157.1914 C.ar    1  UNL1        0.1543
      6 N         144.1925  139.4619  156.4666 N.ar    1  UNL1       -0.2073
      7 C         144.7861  140.6326  157.1925 C.ar    1  UNL1        0.2015
      8 N         144.4745  140.8520  158.6433 N.ar    1  UNL1       -0.2045
      9 C         143.5692  139.9007  159.3681 C.ar    1  UNL1        0.1711
     10 CL        144.4745  143.7917  165.1013 Cl      1  UNL1       -0.0822
     11 C         144.1270  142.8089  164.0228 C.ar    1  UNL1        0.0578
     12 C         142.7752  142.8540  163.3741 C.ar    1  UNL1        0.0129
     13 C         142.4277  141.8712  162.2956 C.ar    1  UNL1        0.0185
     14 C         143.4319  140.8433  161.8656 C.ar    1  UNL1        0.0668
     15 C         144.7837  140.7982  162.5142 C.ar    1  UNL1        0.0185
     16 C         145.1312  141.7810  163.5928 C.ar    1  UNL1        0.0129
     17 C         141.4885  138.2423  162.1942 C.ar    1  UNL1        0.0451
     18 C         142.2741  138.0072  163.4501 C.ar    1  UNL1        0.0038
     19 C         141.5715  137.5847  164.7062 C.ar    1  UNL1        0.0002
     20 C         140.0833  137.3972  164.7063 C.ar    1  UNL1        0.0009
     21 C         139.2977  137.6323  163.4503 C.ar    1  UNL1        0.0115
     22 C         140.0003  138.0548  162.1943 C.ar    1  UNL1        0.0606
     23 CL        139.2147  138.2900  160.9382 Cl      1  UNL1       -0.0821
     24 N         142.6935  137.3399  156.4654 N.pl3   1  UNL1       -0.2919
     25 C         143.5487  136.1549  156.1272 C.3     1  UNL1        0.0922
     26 C         142.9550  134.9842  155.4013 C.3     1  UNL1        0.0215
     27 C         141.5061  134.9984  155.0135 C.3     1  UNL1        0.0035
     28 C         140.6508  136.1835  155.3518 C.3     1  UNL1        0.0215
     29 C         141.2445  137.3542  156.0777 C.3     1  UNL1        0.0922
@<TRIPOS>BOND
     1    10    11    1
     2    11    12   ar
     3    12    13   ar
     4    13    14   ar
     5    14     1    1
     6     1     2   ar
     7     2    17    1
     8    17    18   ar
     9    18    19   ar
    10    19    20   ar
    11    20    21   ar
    12    21    22   ar
    13    22    23    1
    14     2     3   ar
    15     3     4   ar
    16     4     5   ar
    17     5    24    1
    18    24    25    1
    19    25    26    1
    20    26    27    1
    21    27    28    1
    22    28    29    1
    23     5     6   ar
    24     6     7   ar
    25     7     8   ar
    26     8     9   ar
    27    14    15   ar
    28    15    16   ar
    29    16    11   ar
    30     9     1   ar
    31    22    17   ar
    32     9     4   ar
    33    29    24    1
@<TRIPOS>MOLECULE
*****
 29 33 0 0 0
SMALL
GASTEIGER

@<TRIPOS>ATOM
      1 N         139.5703  141.4411  160.6990 N.ar    1  UNL1       -0.2753
      2 C         139.2683  142.8823  160.9854 C.ar    1  UNL1        0.1497
      3 N         139.1526  143.6011  159.6740 N.ar    1  UNL1       -0.2220
      4 C         139.3831  142.6042  158.5771 C.ar    1  UNL1        0.1487
      5 C         139.3912  142.7396  157.0832 C.ar    1  UNL1        0.1543
      6 N         139.6575  141.5401  156.2229 N.ar    1  UNL1       -0.2073
      7 C         139.9157  140.2052  156.8564 C.ar    1  UNL1        0.2015
      8 N         139.9075  140.0698  158.3502 N.ar    1  UNL1       -0.2045
      9 C         139.6412  141.2693  159.2106 C.ar    1  UNL1        0.1711
     10 CL        140.3566  137.1221  164.7890 Cl      1  UNL1       -0.0822
     11 C         140.1600  138.2018  163.7665 C.ar    1  UNL1        0.0578
     12 C         141.2416  139.2129  163.5260 C.ar    1  UNL1        0.0129
     13 C         141.0450  140.2927  162.5035 C.ar    1  UNL1        0.0185
     14 C         139.7669  140.3614  161.7215 C.ar    1  UNL1        0.0668
     15 C         138.6853  139.3503  161.9620 C.ar    1  UNL1        0.0185
     16 C         138.8819  138.2706  162.9845 C.ar    1  UNL1        0.0129
     17 C         139.1099  143.4966  162.3447 C.ar    1  UNL1        0.0451
     18 C         137.7899  143.4203  163.0530 C.ar    1  UNL1        0.0038
     19 C         137.6315  144.0346  164.4122 C.ar    1  UNL1        0.0002
     20 C         138.7931  144.7253  165.0631 C.ar    1  UNL1        0.0009
     21 C         140.1131  144.8017  164.3547 C.ar    1  UNL1        0.0115
     22 C         140.2715  144.1873  162.9956 C.ar    1  UNL1        0.0606
     23 CL        141.5915  144.2636  162.2872 Cl      1  UNL1       -0.0821
     24 N         139.1330  144.0746  156.4497 N.pl3   1  UNL1       -0.2919
     25 C         140.0497  145.2281  156.7310 C.3     1  UNL1        0.0922
     26 C         139.7915  146.5631  156.0975 C.3     1  UNL1        0.0215
     27 C         138.6166  146.7445  155.1828 C.3     1  UNL1        0.0035
     28 C         137.6999  145.5909  154.9015 C.3     1  UNL1        0.0215
     29 C         137.9581  144.2560  155.5350 C.3     1  UNL1        0.0922
@<TRIPOS>BOND
     1    10    11    1
     2    11    12   ar
     3    12    13   ar
     4    13    14   ar
     5    14     1    1
     6     1     2   ar
     7     2    17    1
     8    17    18   ar
     9    18    19   ar
    10    19    20   ar
    11    20    21   ar
    12    21    22   ar
    13    22    23    1
    14     2     3   ar
    15     3     4   ar
    16     4     5   ar
    17     5    24    1
    18    24    25    1
    19    25    26    1
    20    26    27    1
    21    27    28    1
    22    28    29    1
    23     5     6   ar
    24     6     7   ar
    25     7     8   ar
    26     8     9   ar
    27    14    15   ar
    28    15    16   ar
    29    16    11   ar
    30     9     1   ar
    31    22    17   ar
    32     9     4   ar
    33    29    24    1
