@<TRIPOS>MOLECULE
*****
 31 35 0 0 0
SMALL
GASTEIGER

@<TRIPOS>ATOM
      1 C         139.5682  139.6761  166.6750 C.ar    1  UNL1        0.0562
      2 C         138.2139  139.6981  166.0306 C.ar    1  UNL1        0.0062
      3 C         138.0779  139.4287  164.5613 C.ar    1  UNL1        0.0173
      4 C         139.2964  139.1371  163.7364 C.ar    1  UNL1        0.0593
      5 C         140.6507  139.1151  164.3807 C.ar    1  UNL1        0.0130
      6 C         140.7866  139.3845  165.8500 C.ar    1  UNL1        0.0059
      7 C         141.6636  138.8002  163.3201 C.ar    1  UNL1       -0.0091
      8 C         140.9353  138.6277  162.0202 C.ar    1  UNL1        0.0331
      9 N         139.4723  138.8359  162.2775 N.ar    1  UNL1       -0.3309
     10 C         141.6984  138.3032  160.7703 C.3     1  UNL1        0.0435
     11 C         143.1898  138.1514  160.8202 C.3     1  UNL1        0.0066
     12 C         143.9181  138.3239  162.1201 C.3     1  UNL1        0.0051
     13 C         143.1551  138.6483  163.3701 C.3     1  UNL1        0.0275
     14 C         141.5008  141.2222  171.3393 C.3     1  UNL1        0.0773
     15 C         140.5925  140.6562  170.2883 C.ar    1  UNL1        0.1812
     16 N         139.2343  140.0642  170.5225 N.ar    1  UNL1       -0.0602
     17 O         138.6853  139.6250  169.1974 O.2     1  UNL1       -0.3328
     18 C         139.7042  139.9456  168.1443 C.ar    1  UNL1        0.2597
     19 N         140.8829  140.5829  168.8185 N.ar    1  UNL1       -0.1911
     20 C         138.3773  138.7568  161.2553 C.3     1  UNL1        0.1066
     21 C         137.5867  139.9830  160.9066 C.3     1  UNL1        0.0365
     22 C         138.2887  141.2899  160.6844 C.3     1  UNL1        0.0642
     23 S         138.2354  142.3580  161.7361 S.3     1  UNL1       -0.1135
     24 C         139.3624  142.5031  162.7154 C.ar    1  UNL1        0.0297
     25 C         140.7777  142.2867  162.2675 C.ar    1  UNL1        0.0359
     26 C         141.9047  142.4318  163.2468 C.ar    1  UNL1        0.1429
     27 F         143.3197  142.2153  162.7989 F       1  UNL1       -0.2041
     28 C         141.6165  142.7932  164.6737 C.ar    1  UNL1        0.0593
     29 C         140.2014  143.0096  165.1215 C.ar    1  UNL1        0.1429
     30 F         139.9132  143.3711  166.5485 F       1  UNL1       -0.2041
     31 C         139.0743  142.8646  164.1423 C.ar    1  UNL1        0.0359
@<TRIPOS>BOND
     1    14    15    1
     2    15    16   ar
     3    16    17   ar
     4    17    18   ar
     5    18     1    1
     6     1     2   ar
     7     2     3   ar
     8     3     4   ar
     9     4     5   ar
    10     5     6   ar
    11     5     7   ar
    12     7     8   ar
    13     8     9   ar
    14     9    20    1
    15    20    21    1
    16    21    22    1
    17    22    23    1
    18    23    24    1
    19    24    25   ar
    20    25    26   ar
    21    26    27    1
    22    26    28   ar
    23    28    29   ar
    24    29    30    1
    25    29    31   ar
    26     8    10    1
    27    10    11    1
    28    11    12    1
    29    12    13    1
    30    18    19   ar
    31    19    15   ar
    32     6     1   ar
    33    13     7    1
    34     9     4   ar
    35    31    24   ar
@<TRIPOS>MOLECULE
*****
 31 35 0 0 0
SMALL
GASTEIGER

@<TRIPOS>ATOM
      1 C         139.3471  140.1723  166.8556 C.ar    1  UNL1        0.0562
      2 C         138.8182  138.9197  166.2222 C.ar    1  UNL1        0.0062
      3 C         138.5765  138.8720  164.7426 C.ar    1  UNL1        0.0173
      4 C         138.8636  140.0768  163.8964 C.ar    1  UNL1        0.0593
      5 C         139.3925  141.3294  164.5299 C.ar    1  UNL1        0.0130
      6 C         139.6342  141.3772  166.0095 C.ar    1  UNL1        0.0059
      7 C         139.5808  142.3518  163.4486 C.ar    1  UNL1       -0.0091
      8 C         139.1684  141.7311  162.1469 C.ar    1  UNL1        0.0331
      9 N         138.7251  140.3251  162.4236 N.ar    1  UNL1       -0.3309
     10 C         139.2497  142.5264  160.8777 C.3     1  UNL1        0.0435
     11 C         139.7435  143.9424  160.9103 C.3     1  UNL1        0.0066
     12 C         140.1559  144.5631  162.2120 C.3     1  UNL1        0.0051
     13 C         140.0746  143.7678  163.4812 C.3     1  UNL1        0.0275
     14 C         141.5577  141.1282  171.5546 C.3     1  UNL1        0.0773
     15 C         140.6049  140.6595  170.4952 C.ar    1  UNL1        0.1812
     16 N         139.3166  139.9278  170.7292 N.ar    1  UNL1       -0.0602
     17 O         138.6886  139.6562  169.3944 O.2     1  UNL1       -0.3328
     18 C         139.5888  140.2201  168.3353 C.ar    1  UNL1        0.2597
     19 N         140.7732  140.8402  169.0156 N.ar    1  UNL1       -0.1911
     20 C         138.2302  139.3403  161.4062 C.3     1  UNL1        0.1066
     21 C         139.0931  138.1816  161.0022 C.3     1  UNL1        0.0365
     22 C         140.5812  138.3493  160.9148 C.3     1  UNL1        0.0642
     23 S         141.4626  137.8003  161.9971 S.3     1  UNL1       -0.1135
     24 C         142.0089  138.7132  163.0546 C.ar    1  UNL1        0.0297
     25 C         142.1174  138.2375  164.4731 C.ar    1  UNL1        0.0359
     26 C         142.6637  139.1504  165.5306 C.ar    1  UNL1        0.1429
     27 F         142.7722  138.6747  166.9489 F       1  UNL1       -0.2041
     28 C         143.1013  140.5390  165.1696 C.ar    1  UNL1        0.0593
     29 C         142.9928  141.0147  163.7512 C.ar    1  UNL1        0.1429
     30 F         143.4304  142.4032  163.3902 F       1  UNL1       -0.2041
     31 C         142.4465  140.1018  162.6936 C.ar    1  UNL1        0.0359
@<TRIPOS>BOND
     1    14    15    1
     2    15    16   ar
     3    16    17   ar
     4    17    18   ar
     5    18     1    1
     6     1     2   ar
     7     2     3   ar
     8     3     4   ar
     9     4     5   ar
    10     5     6   ar
    11     5     7   ar
    12     7     8   ar
    13     8     9   ar
    14     9    20    1
    15    20    21    1
    16    21    22    1
    17    22    23    1
    18    23    24    1
    19    24    25   ar
    20    25    26   ar
    21    26    27    1
    22    26    28   ar
    23    28    29   ar
    24    29    30    1
    25    29    31   ar
    26     8    10    1
    27    10    11    1
    28    11    12    1
    29    12    13    1
    30    18    19   ar
    31    19    15   ar
    32     6     1   ar
    33    13     7    1
    34     9     4   ar
    35    31    24   ar
@<TRIPOS>MOLECULE
*****
 31 35 0 0 0
SMALL
GASTEIGER

@<TRIPOS>ATOM
      1 C         140.6976  140.4435  168.1432 C.ar    1  UNL1        0.0562
      2 C         142.0156  139.7715  167.8957 C.ar    1  UNL1        0.0062
      3 C         142.8883  140.2262  166.7637 C.ar    1  UNL1        0.0173
      4 C         142.4430  141.3528  165.8791 C.ar    1  UNL1        0.0593
      5 C         141.1250  142.0248  166.1266 C.ar    1  UNL1        0.0130
      6 C         140.2523  141.5702  167.2587 C.ar    1  UNL1        0.0059
      7 C         140.9524  143.1008  165.0958 C.ar    1  UNL1       -0.0091
      8 C         142.1638  143.0938  164.2112 C.ar    1  UNL1        0.0331
      9 N         143.0850  142.0135  164.6953 N.ar    1  UNL1       -0.3309
     10 C         142.2715  144.0719  163.0792 C.3     1  UNL1        0.0435
     11 C         141.1678  145.0571  162.8318 C.3     1  UNL1        0.0066
     12 C         139.9564  145.0641  163.7164 C.3     1  UNL1        0.0051
     13 C         139.8487  144.0860  164.8484 C.3     1  UNL1        0.0275
     14 C         136.4650  139.0347  170.9683 C.3     1  UNL1        0.0773
     15 C         137.8793  139.3413  170.5739 C.ar    1  UNL1        0.1812
     16 N         139.0844  139.2372  171.4610 N.ar    1  UNL1       -0.0602
     17 O         140.2868  139.6374  170.6585 O.2     1  UNL1       -0.3328
     18 C         139.8248  139.9889  169.2754 C.ar    1  UNL1        0.2597
     19 N         138.3369  139.8059  169.2231 N.ar    1  UNL1       -0.1911
     20 C         144.4148  141.6565  164.1000 C.3     1  UNL1        0.1066
     21 C         144.5067  140.5766  163.0629 C.3     1  UNL1        0.0365
     22 C         144.1157  139.1702  163.4079 C.3     1  UNL1        0.0642
     23 S         142.8801  138.5669  162.8086 S.3     1  UNL1       -0.1135
     24 C         141.5258  139.0274  163.2602 C.ar    1  UNL1        0.0297
     25 C         140.8470  140.1647  162.5558 C.ar    1  UNL1        0.0359
     26 C         139.4927  140.6252  163.0074 C.ar    1  UNL1        0.1429
     27 F         138.8140  141.7624  162.3030 F       1  UNL1       -0.2041
     28 C         138.8173  139.9486  164.1632 C.ar    1  UNL1        0.0593
     29 C         139.4961  138.8115  164.8675 C.ar    1  UNL1        0.1429
     30 F         138.8207  138.1349  166.0233 F       1  UNL1       -0.2041
     31 C         140.8504  138.3508  164.4160 C.ar    1  UNL1        0.0359
@<TRIPOS>BOND
     1    14    15    1
     2    15    16   ar
     3    16    17   ar
     4    17    18   ar
     5    18     1    1
     6     1     2   ar
     7     2     3   ar
     8     3     4   ar
     9     4     5   ar
    10     5     6   ar
    11     5     7   ar
    12     7     8   ar
    13     8     9   ar
    14     9    20    1
    15    20    21    1
    16    21    22    1
    17    22    23    1
    18    23    24    1
    19    24    25   ar
    20    25    26   ar
    21    26    27    1
    22    26    28   ar
    23    28    29   ar
    24    29    30    1
    25    29    31   ar
    26     8    10    1
    27    10    11    1
    28    11    12    1
    29    12    13    1
    30    18    19   ar
    31    19    15   ar
    32     6     1   ar
    33    13     7    1
    34     9     4   ar
    35    31    24   ar
@<TRIPOS>MOLECULE
*****
 31 35 0 0 0
SMALL
GASTEIGER

@<TRIPOS>ATOM
      1 C         141.5488  143.5943  160.3684 C.ar    1  UNL1        0.0562
      2 C         142.5779  143.8275  161.4344 C.ar    1  UNL1        0.0062
      3 C         142.6927  142.8749  162.5873 C.ar    1  UNL1        0.0173
      4 C         141.7783  141.6889  162.6742 C.ar    1  UNL1        0.0593
      5 C         140.7492  141.4557  161.6082 C.ar    1  UNL1        0.0130
      6 C         140.6344  142.4083  160.4553 C.ar    1  UNL1        0.0059
      7 C         139.9921  140.2093  161.9595 C.ar    1  UNL1       -0.0091
      8 C         140.5534  139.6723  163.2427 C.ar    1  UNL1        0.0331
      9 N         141.6573  140.5867  163.6844 N.ar    1  UNL1       -0.3309
     10 C         139.9867  138.4200  163.8432 C.3     1  UNL1        0.0435
     11 C         138.8588  137.7047  163.1604 C.3     1  UNL1        0.0066
     12 C         138.2975  138.2417  161.8772 C.3     1  UNL1        0.0051
     13 C         138.8642  139.4941  161.2768 C.3     1  UNL1        0.0275
     14 C         139.5427  146.8043  156.6871 C.3     1  UNL1        0.0773
     15 C         140.5119  146.0224  157.5233 C.ar    1  UNL1        0.1812
     16 N         142.0027  146.0034  157.3592 N.ar    1  UNL1       -0.0602
     17 O         142.5726  145.0915  158.4050 O.2     1  UNL1       -0.3328
     18 C         141.4339  144.5470  159.2154 C.ar    1  UNL1        0.2597
     19 N         140.1603  145.1223  158.6705 N.ar    1  UNL1       -0.1911
     20 C         142.4934  140.4270  164.9195 C.3     1  UNL1        0.1066
     21 C         142.3664  141.4119  166.0438 C.3     1  UNL1        0.0365
     22 C         141.0334  141.6425  166.6918 C.3     1  UNL1        0.0642
     23 S         140.3212  142.9483  166.4980 S.3     1  UNL1       -0.1135
     24 C         139.5551  143.2044  165.2340 C.ar    1  UNL1        0.0297
     25 C         138.4981  142.2375  164.7888 C.ar    1  UNL1        0.0359
     26 C         137.7320  142.4935  163.5248 C.ar    1  UNL1        0.1429
     27 F         136.6751  141.5267  163.0796 F       1  UNL1       -0.2041
     28 C         138.0228  143.7163  162.7061 C.ar    1  UNL1        0.0593
     29 C         139.0797  144.6831  163.1514 C.ar    1  UNL1        0.1429
     30 F         139.3705  145.9058  162.3327 F       1  UNL1       -0.2041
     31 C         139.8459  144.4271  164.4154 C.ar    1  UNL1        0.0359
@<TRIPOS>BOND
     1    14    15    1
     2    15    16   ar
     3    16    17   ar
     4    17    18   ar
     5    18     1    1
     6     1     2   ar
     7     2     3   ar
     8     3     4   ar
     9     4     5   ar
    10     5     6   ar
    11     5     7   ar
    12     7     8   ar
    13     8     9   ar
    14     9    20    1
    15    20    21    1
    16    21    22    1
    17    22    23    1
    18    23    24    1
    19    24    25   ar
    20    25    26   ar
    21    26    27    1
    22    26    28   ar
    23    28    29   ar
    24    29    30    1
    25    29    31   ar
    26     8    10    1
    27    10    11    1
    28    11    12    1
    29    12    13    1
    30    18    19   ar
    31    19    15   ar
    32     6     1   ar
    33    13     7    1
    34     9     4   ar
    35    31    24   ar
@<TRIPOS>MOLECULE
*****
 31 35 0 0 0
SMALL
GASTEIGER

@<TRIPOS>ATOM
      1 C         142.6608  142.0915  166.2266 C.ar    1  UNL1        0.0562
      2 C         143.8609  142.2708  165.3448 C.ar    1  UNL1        0.0062
      3 C         143.7257  142.1339  163.8572 C.ar    1  UNL1        0.0173
      4 C         142.3904  141.8177  163.2514 C.ar    1  UNL1        0.0593
      5 C         141.1903  141.6385  164.1332 C.ar    1  UNL1        0.0130
      6 C         141.3254  141.7754  165.6208 C.ar    1  UNL1        0.0059
      7 C         140.0119  141.3344  163.2562 C.ar    1  UNL1       -0.0091
      8 C         140.4838  141.3256  161.8324 C.ar    1  UNL1        0.0331
      9 N         141.9538  141.6244  161.8295 N.ar    1  UNL1       -0.3309
     10 C         139.5141  141.0468  160.7226 C.3     1  UNL1        0.0435
     11 C         138.0724  140.7767  161.0365 C.3     1  UNL1        0.0066
     12 C         137.6005  140.7854  162.4603 C.3     1  UNL1        0.0051
     13 C         138.5703  141.0643  163.5702 C.3     1  UNL1        0.0275
     14 C         141.6474  141.8608  171.4035 C.3     1  UNL1        0.0773
     15 C         142.3301  142.1224  170.0938 C.ar    1  UNL1        0.1812
     16 N         143.6777  142.7558  169.9131 N.ar    1  UNL1       -0.0602
     17 O         143.9656  142.8214  168.4424 O.2     1  UNL1       -0.3328
     18 C         142.7959  142.2284  167.7143 C.ar    1  UNL1        0.2597
     19 N         141.7851  141.7964  168.7349 N.ar    1  UNL1       -0.1911
     20 C         142.8328  141.7140  160.6173 C.3     1  UNL1        0.1066
     21 C         143.4292  140.4693  160.0296 C.3     1  UNL1        0.0365
     22 C         144.0315  139.4299  160.9279 C.3     1  UNL1        0.0642
     23 S         143.2966  138.1490  161.1907 S.3     1  UNL1       -0.1135
     24 C         142.3338  138.0584  162.3374 C.ar    1  UNL1        0.0297
     25 C         140.8947  137.7198  162.0834 C.ar    1  UNL1        0.0359
     26 C         139.9319  137.6293  163.2301 C.ar    1  UNL1        0.1429
     27 F         138.4929  137.2907  162.9761 F       1  UNL1       -0.2041
     28 C         140.4082  137.8773  164.6307 C.ar    1  UNL1        0.0593
     29 C         141.8472  138.2159  164.8846 C.ar    1  UNL1        0.1429
     30 F         142.3235  138.4640  166.2852 F       1  UNL1       -0.2041
     31 C         142.8101  138.3065  163.7379 C.ar    1  UNL1        0.0359
@<TRIPOS>BOND
     1    14    15    1
     2    15    16   ar
     3    16    17   ar
     4    17    18   ar
     5    18     1    1
     6     1     2   ar
     7     2     3   ar
     8     3     4   ar
     9     4     5   ar
    10     5     6   ar
    11     5     7   ar
    12     7     8   ar
    13     8     9   ar
    14     9    20    1
    15    20    21    1
    16    21    22    1
    17    22    23    1
    18    23    24    1
    19    24    25   ar
    20    25    26   ar
    21    26    27    1
    22    26    28   ar
    23    28    29   ar
    24    29    30    1
    25    29    31   ar
    26     8    10    1
    27    10    11    1
    28    11    12    1
    29    12    13    1
    30    18    19   ar
    31    19    15   ar
    32     6     1   ar
    33    13     7    1
    34     9     4   ar
    35    31    24   ar
@<TRIPOS>MOLECULE
*****
 31 35 0 0 0
SMALL
GASTEIGER

@<TRIPOS>ATOM
      1 C         140.6009  139.9345  166.8578 C.ar    1  UNL1        0.0562
      2 C         142.0276  139.4797  166.7697 C.ar    1  UNL1        0.0062
      3 C         142.5812  138.9959  165.4623 C.ar    1  UNL1        0.0173
      4 C         141.7081  138.9670  164.2428 C.ar    1  UNL1        0.0593
      5 C         140.2815  139.4219  164.3309 C.ar    1  UNL1        0.0130
      6 C         139.7279  139.9056  165.6384 C.ar    1  UNL1        0.0059
      7 C         139.6652  139.2810  162.9706 C.ar    1  UNL1       -0.0091
      8 C         140.7109  138.7390  162.0418 C.ar    1  UNL1        0.0331
      9 N         141.9735  138.5450  162.8281 N.ar    1  UNL1       -0.3309
     10 C         140.3784  138.4922  160.6002 C.3     1  UNL1        0.0435
     11 C         139.0001  138.7874  160.0873 C.3     1  UNL1        0.0066
     12 C         137.9543  139.3293  161.0160 C.3     1  UNL1        0.0051
     13 C         138.2869  139.5761  162.4577 C.3     1  UNL1        0.0275
     14 C         139.5684  142.9536  171.0648 C.3     1  UNL1        0.0773
     15 C         139.5726  141.8060  170.0991 C.ar    1  UNL1        0.1812
     16 N         138.8179  140.5192  170.2555 N.ar    1  UNL1       -0.0602
     17 O         139.1112  139.6615  169.0603 O.2     1  UNL1       -0.3328
     18 C         140.0472  140.4183  168.1653 C.ar    1  UNL1        0.2597
     19 N         140.3325  141.7436  168.8072 N.ar    1  UNL1       -0.1911
     20 C         143.2734  138.0210  162.2935 C.3     1  UNL1        0.1066
     21 C         143.9145  138.6759  161.1060 C.3     1  UNL1        0.0365
     22 C         143.9503  140.1720  161.0030 C.3     1  UNL1        0.0642
     23 S         144.5868  140.9836  162.0920 S.3     1  UNL1       -0.1135
     24 C         143.7296  141.6795  163.1073 C.ar    1  UNL1        0.0297
     25 C         144.2654  141.9504  164.4820 C.ar    1  UNL1        0.0359
     26 C         143.4082  142.6463  165.4974 C.ar    1  UNL1        0.1429
     27 F         143.9439  142.9171  166.8720 F       1  UNL1       -0.2041
     28 C         142.0153  143.0714  165.1381 C.ar    1  UNL1        0.0593
     29 C         141.4796  142.8005  163.7634 C.ar    1  UNL1        0.1429
     30 F         140.0867  143.2256  163.4041 F       1  UNL1       -0.2041
     31 C         142.3367  142.1046  162.7480 C.ar    1  UNL1        0.0359
@<TRIPOS>BOND
     1    14    15    1
     2    15    16   ar
     3    16    17   ar
     4    17    18   ar
     5    18     1    1
     6     1     2   ar
     7     2     3   ar
     8     3     4   ar
     9     4     5   ar
    10     5     6   ar
    11     5     7   ar
    12     7     8   ar
    13     8     9   ar
    14     9    20    1
    15    20    21    1
    16    21    22    1
    17    22    23    1
    18    23    24    1
    19    24    25   ar
    20    25    26   ar
    21    26    27    1
    22    26    28   ar
    23    28    29   ar
    24    29    30    1
    25    29    31   ar
    26     8    10    1
    27    10    11    1
    28    11    12    1
    29    12    13    1
    30    18    19   ar
    31    19    15   ar
    32     6     1   ar
    33    13     7    1
    34     9     4   ar
    35    31    24   ar
@<TRIPOS>MOLECULE
*****
 31 35 0 0 0
SMALL
GASTEIGER

@<TRIPOS>ATOM
      1 C         142.1385  140.8980  165.6440 C.ar    1  UNL1        0.0562
      2 C         142.9929  141.9942  165.0797 C.ar    1  UNL1        0.0062
      3 C         142.7725  142.4686  163.6739 C.ar    1  UNL1        0.0173
      4 C         141.6977  141.8469  162.8324 C.ar    1  UNL1        0.0593
      5 C         140.8432  140.7508  163.3966 C.ar    1  UNL1        0.0130
      6 C         141.0636  140.2763  164.8024 C.ar    1  UNL1        0.0059
      7 C         139.8679  140.3312  162.3370 C.ar    1  UNL1       -0.0091
      8 C         140.1196  141.1680  161.1178 C.ar    1  UNL1        0.0331
      9 N         141.2504  142.1047  161.4240 N.ar    1  UNL1       -0.3309
     10 C         139.2866  140.9689  159.8864 C.3     1  UNL1        0.0435
     11 C         138.2019  139.9329  159.8742 C.3     1  UNL1        0.0066
     12 C         137.9502  139.0961  161.0934 C.3     1  UNL1        0.0051
     13 C         138.7832  139.2952  162.3248 C.3     1  UNL1        0.0275
     14 C         142.2529  140.7058  170.9195 C.3     1  UNL1        0.0773
     15 C         142.4115  140.3352  169.4747 C.ar    1  UNL1        0.1812
     16 N         142.9847  139.0515  168.9515 N.ar    1  UNL1       -0.0602
     17 O         142.9522  139.1061  167.4529 O.2     1  UNL1       -0.3328
     18 C         142.3589  140.4235  167.0498 C.ar    1  UNL1        0.2597
     19 N         142.0247  141.1831  168.2993 N.ar    1  UNL1       -0.1911
     20 C         141.8320  143.1210  160.4864 C.3     1  UNL1        0.1066
     21 C         141.7722  144.5798  160.8305 C.3     1  UNL1        0.0365
     22 C         140.4698  145.3187  160.7413 C.3     1  UNL1        0.0642
     23 S         139.7664  145.7523  161.9932 S.3     1  UNL1       -0.1135
     24 C         139.2732  144.7264  162.9700 C.ar    1  UNL1        0.0297
     25 C         138.2066  143.7538  162.5617 C.ar    1  UNL1        0.0359
     26 C         137.7134  142.7278  163.5385 C.ar    1  UNL1        0.1429
     27 F         136.6469  141.7553  163.1302 F       1  UNL1       -0.2041
     28 C         138.2867  142.6744  164.9236 C.ar    1  UNL1        0.0593
     29 C         139.3532  143.6470  165.3319 C.ar    1  UNL1        0.1429
     30 F         139.9264  143.5936  166.7170 F       1  UNL1       -0.2041
     31 C         139.8465  144.6730  164.3551 C.ar    1  UNL1        0.0359
@<TRIPOS>BOND
     1    14    15    1
     2    15    16   ar
     3    16    17   ar
     4    17    18   ar
     5    18     1    1
     6     1     2   ar
     7     2     3   ar
     8     3     4   ar
     9     4     5   ar
    10     5     6   ar
    11     5     7   ar
    12     7     8   ar
    13     8     9   ar
    14     9    20    1
    15    20    21    1
    16    21    22    1
    17    22    23    1
    18    23    24    1
    19    24    25   ar
    20    25    26   ar
    21    26    27    1
    22    26    28   ar
    23    28    29   ar
    24    29    30    1
    25    29    31   ar
    26     8    10    1
    27    10    11    1
    28    11    12    1
    29    12    13    1
    30    18    19   ar
    31    19    15   ar
    32     6     1   ar
    33    13     7    1
    34     9     4   ar
    35    31    24   ar
@<TRIPOS>MOLECULE
*****
 31 35 0 0 0
SMALL
GASTEIGER

@<TRIPOS>ATOM
      1 C         140.0822  140.9378  166.2729 C.ar    1  UNL1        0.0562
      2 C         138.8309  141.0165  165.4495 C.ar    1  UNL1        0.0062
      3 C         138.9167  141.3065  163.9804 C.ar    1  UNL1        0.0173
      4 C         140.2540  141.5178  163.3345 C.ar    1  UNL1        0.0593
      5 C         141.5054  141.4391  164.1578 C.ar    1  UNL1        0.0130
      6 C         141.4195  141.1490  165.6270 C.ar    1  UNL1        0.0059
      7 C         142.6735  141.6900  163.2509 C.ar    1  UNL1       -0.0091
      8 C         142.1441  141.9239  161.8671 C.ar    1  UNL1        0.0331
      9 N         140.6488  141.8175  161.9188 N.ar    1  UNL1       -0.3309
     10 C         143.0920  142.2035  160.7387 C.3     1  UNL1        0.0435
     11 C         144.5694  142.2493  160.9942 C.3     1  UNL1        0.0066
     12 C         145.0988  142.0154  162.3781 C.3     1  UNL1        0.0051
     13 C         144.1509  141.7358  163.5064 C.3     1  UNL1        0.0275
     14 C         141.0123  141.0167  171.4699 C.3     1  UNL1        0.0773
     15 C         140.4238  140.6840  170.1309 C.ar    1  UNL1        0.1812
     16 N         139.3046  139.7187  169.8749 N.ar    1  UNL1       -0.0602
     17 O         139.0404  139.6963  168.3985 O.2     1  UNL1       -0.3328
     18 C         139.9964  140.6477  167.7421 C.ar    1  UNL1        0.2597
     19 N         140.8514  141.2581  168.8127 N.ar    1  UNL1       -0.1911
     20 C         139.7126  141.9818  160.7584 C.3     1  UNL1        0.1066
     21 C         138.8229  140.8467  160.3459 C.3     1  UNL1        0.0365
     22 C         139.4193  139.6002  159.7623 C.3     1  UNL1        0.0642
     23 S         139.2675  138.2904  160.4775 S.3     1  UNL1       -0.1135
     24 C         139.8943  138.0954  161.8262 C.ar    1  UNL1        0.0297
     25 C         141.3756  138.2603  161.9959 C.ar    1  UNL1        0.0359
     26 C         142.0023  138.0652  163.3446 C.ar    1  UNL1        0.1429
     27 F         143.4835  138.2301  163.5142 F       1  UNL1       -0.2041
     28 C         141.1479  137.7053  164.5237 C.ar    1  UNL1        0.0593
     29 C         139.6667  137.5404  164.3541 C.ar    1  UNL1        0.1429
     30 F         138.8122  137.1805  165.5332 F       1  UNL1       -0.2041
     31 C         139.0398  137.7355  163.0053 C.ar    1  UNL1        0.0359
@<TRIPOS>BOND
     1    14    15    1
     2    15    16   ar
     3    16    17   ar
     4    17    18   ar
     5    18     1    1
     6     1     2   ar
     7     2     3   ar
     8     3     4   ar
     9     4     5   ar
    10     5     6   ar
    11     5     7   ar
    12     7     8   ar
    13     8     9   ar
    14     9    20    1
    15    20    21    1
    16    21    22    1
    17    22    23    1
    18    23    24    1
    19    24    25   ar
    20    25    26   ar
    21    26    27    1
    22    26    28   ar
    23    28    29   ar
    24    29    30    1
    25    29    31   ar
    26     8    10    1
    27    10    11    1
    28    11    12    1
    29    12    13    1
    30    18    19   ar
    31    19    15   ar
    32     6     1   ar
    33    13     7    1
    34     9     4   ar
    35    31    24   ar
@<TRIPOS>MOLECULE
*****
 31 35 0 0 0
SMALL
GASTEIGER

@<TRIPOS>ATOM
      1 C         141.2444  141.1104  167.3750 C.ar    1  UNL1        0.0562
      2 C         142.2703  142.2043  167.3446 C.ar    1  UNL1        0.0062
      3 C         143.2304  142.3004  166.1961 C.ar    1  UNL1        0.0173
      4 C         143.1646  141.3025  165.0781 C.ar    1  UNL1        0.0593
      5 C         142.1387  140.2086  165.1085 C.ar    1  UNL1        0.0130
      6 C         141.1786  140.1126  166.2570 C.ar    1  UNL1        0.0059
      7 C         142.3127  139.3754  163.8734 C.ar    1  UNL1       -0.0091
      8 C         143.4462  139.9544  163.0796 C.ar    1  UNL1        0.0331
      9 N         143.9726  141.1454  163.8241 N.ar    1  UNL1       -0.3309
     10 C         143.8524  139.3223  161.7814 C.3     1  UNL1        0.0435
     11 C         143.1252  138.1112  161.2770 C.3     1  UNL1        0.0066
     12 C         141.9918  137.5322  162.0708 C.3     1  UNL1        0.0051
     13 C         141.5855  138.1643  163.3690 C.3     1  UNL1        0.0275
     14 C         137.4254  139.4065  170.5987 C.3     1  UNL1        0.0773
     15 C         138.5289  140.2311  170.0053 C.ar    1  UNL1        0.1812
     16 N         139.0849  141.5018  170.5764 N.ar    1  UNL1       -0.0602
     17 O         140.1698  141.9859  169.6606 O.2     1  UNL1       -0.3328
     18 C         140.2843  141.0143  168.5235 C.ar    1  UNL1        0.2597
     19 N         139.2702  139.9298  168.7366 N.ar    1  UNL1       -0.1911
     20 C         145.1079  142.0248  163.3908 C.3     1  UNL1        0.1066
     21 C         144.8424  143.2188  162.5223 C.3     1  UNL1        0.0365
     22 C         143.5543  143.3205  161.7605 C.3     1  UNL1        0.0642
     23 S         142.4539  144.2074  162.2630 S.3     1  UNL1       -0.1135
     24 C         141.3018  143.6170  163.0207 C.ar    1  UNL1        0.0297
     25 C         140.8314  144.2603  164.2915 C.ar    1  UNL1        0.0359
     26 C         139.6793  143.6699  165.0492 C.ar    1  UNL1        0.1429
     27 F         139.2090  144.3132  166.3200 F       1  UNL1       -0.2041
     28 C         138.9977  142.4361  164.5362 C.ar    1  UNL1        0.0593
     29 C         139.4681  141.7928  163.2654 C.ar    1  UNL1        0.1429
     30 F         138.7864  140.5591  162.7524 F       1  UNL1       -0.2041
     31 C         140.6202  142.3832  162.5076 C.ar    1  UNL1        0.0359
@<TRIPOS>BOND
     1    14    15    1
     2    15    16   ar
     3    16    17   ar
     4    17    18   ar
     5    18     1    1
     6     1     2   ar
     7     2     3   ar
     8     3     4   ar
     9     4     5   ar
    10     5     6   ar
    11     5     7   ar
    12     7     8   ar
    13     8     9   ar
    14     9    20    1
    15    20    21    1
    16    21    22    1
    17    22    23    1
    18    23    24    1
    19    24    25   ar
    20    25    26   ar
    21    26    27    1
    22    26    28   ar
    23    28    29   ar
    24    29    30    1
    25    29    31   ar
    26     8    10    1
    27    10    11    1
    28    11    12    1
    29    12    13    1
    30    18    19   ar
    31    19    15   ar
    32     6     1   ar
    33    13     7    1
    34     9     4   ar
    35    31    24   ar
