@<TRIPOS>MOLECULE
*****
 27 30 0 0 0
SMALL
GASTEIGER

@<TRIPOS>ATOM
      1 N         138.5414  141.4466  163.1546 N.am    1  UNL1       -0.2413
      2 C         138.1017  141.5408  161.7236 C.3     1  UNL1        0.1212
      3 C         138.2167  142.9743  161.2967 C.3     1  UNL1        0.1169
      4 N         138.7275  143.7659  162.4640 N.am    1  UNL1       -0.2606
      5 C         138.9281  142.8218  163.6121 C.2     1  UNL1        0.3111
      6 O         139.4278  143.1884  164.9781 O.2     1  UNL1       -0.2520
      7 C         138.5016  139.0305  166.3026 C.ar    1  UNL1        0.1396
      8 C         138.6765  137.6969  165.6386 C.ar    1  UNL1        0.0370
      9 C         138.8063  137.6132  164.1466 C.ar    1  UNL1        0.0044
     10 C         138.7613  138.8631  163.3185 C.ar    1  UNL1        0.0152
     11 C         138.5864  140.1967  163.9825 C.ar    1  UNL1        0.0584
     12 C         138.4566  140.2804  165.4746 C.ar    1  UNL1        0.0518
     13 O         138.3717  139.1142  167.7947 O.3     1  UNL1       -0.4791
     14 C         138.9627  140.5499  169.8778 C.3     1  UNL1        0.0472
     15 C         139.3735  139.8958  168.5920 C.3     1  UNL1        0.1661
     16 C         140.7860  140.0232  168.1035 C.3     1  UNL1        0.0472
     17 C         138.9913  145.2425  162.4802 C.3     1  UNL1        0.1123
     18 C         140.3773  145.7595  162.2323 C.3     1  UNL1        0.0944
     19 N         141.5656  144.8968  162.5387 N.3     1  UNL1       -0.2637
     20 C         142.2250  144.7477  163.8777 C.3     1  UNL1        0.0992
     21 C         143.3700  143.7905  163.7265 C.ar    1  UNL1       -0.0088
     22 C         144.3749  143.2647  164.7081 C.ar    1  UNL1       -0.0032
     23 C         145.4281  142.2964  164.2572 C.ar    1  UNL1       -0.0003
     24 C         145.4762  141.8539  162.8248 C.ar    1  UNL1       -0.0003
     25 C         144.4713  142.3798  161.8432 C.ar    1  UNL1       -0.0032
     26 C         143.4182  143.3481  162.2941 C.ar    1  UNL1       -0.0088
     27 C         142.3030  144.0318  161.5600 C.3     1  UNL1        0.0992
@<TRIPOS>BOND
     1    14    15    1
     2    15    16    1
     3    15    13    1
     4    13     7    1
     5     7     8   ar
     6     8     9   ar
     7     9    10   ar
     8    10    11   ar
     9    11     1    1
    10     1     2    1
    11     2     3    1
    12     3     4    1
    13     4    17    1
    14    17    18    1
    15    18    19    1
    16    19    20    1
    17    20    21    1
    18    21    22   ar
    19    22    23   ar
    20    23    24   ar
    21    24    25   ar
    22    25    26   ar
    23    26    27    1
    24     4     5   am
    25     5     6    2
    26    11    12   ar
    27    12     7   ar
    28     5     1   am
    29    27    19    1
    30    26    21   ar
@<TRIPOS>MOLECULE
*****
 27 30 0 0 0
SMALL
GASTEIGER

@<TRIPOS>ATOM
      1 N         140.3171  138.7080  163.7461 N.am    1  UNL1       -0.2413
      2 C         139.5798  138.7357  162.4401 C.3     1  UNL1        0.1212
      3 C         140.5616  138.4330  161.3471 C.3     1  UNL1        0.1169
      4 N         141.9056  138.2183  161.9777 N.am    1  UNL1       -0.2606
      5 C         141.7545  138.3882  163.4603 C.2     1  UNL1        0.3111
      6 O         142.8486  138.2607  164.4784 O.2     1  UNL1       -0.2520
      7 C         139.7858  140.1652  167.3991 C.ar    1  UNL1        0.1396
      8 C         138.5304  139.4535  167.8083 C.ar    1  UNL1        0.0370
      9 C         137.8705  138.4934  166.8635 C.ar    1  UNL1        0.0044
     10 C         138.4661  138.2448  165.5094 C.ar    1  UNL1        0.0152
     11 C         139.7215  138.9565  165.1002 C.ar    1  UNL1        0.0584
     12 C         140.3814  139.9166  166.0450 C.ar    1  UNL1        0.0518
     13 O         140.4457  141.1253  168.3439 O.3     1  UNL1       -0.4791
     14 C         142.5358  139.9284  169.3178 C.3     1  UNL1        0.0472
     15 C         141.9297  141.0690  168.5554 C.3     1  UNL1        0.1661
     16 C         142.8075  142.1534  168.0045 C.3     1  UNL1        0.0472
     17 C         143.1774  137.8910  161.2528 C.3     1  UNL1        0.1123
     18 C         144.2043  138.9593  161.0202 C.3     1  UNL1        0.0944
     19 N         144.1107  140.2627  161.7567 N.3     1  UNL1       -0.2637
     20 C         143.3391  141.4711  161.3159 C.3     1  UNL1        0.0992
     21 C         143.5238  142.5418  162.3501 C.ar    1  UNL1       -0.0088
     22 C         142.9999  143.9438  162.4479 C.ar    1  UNL1       -0.0032
     23 C         143.3618  144.7992  163.6258 C.ar    1  UNL1       -0.0003
     24 C         144.2476  144.2525  164.7058 C.ar    1  UNL1       -0.0003
     25 C         144.7715  142.8504  164.6080 C.ar    1  UNL1       -0.0032
     26 C         144.4097  141.9950  163.4301 C.ar    1  UNL1       -0.0088
     27 C         144.7723  140.5865  163.0634 C.3     1  UNL1        0.0992
@<TRIPOS>BOND
     1    14    15    1
     2    15    16    1
     3    15    13    1
     4    13     7    1
     5     7     8   ar
     6     8     9   ar
     7     9    10   ar
     8    10    11   ar
     9    11     1    1
    10     1     2    1
    11     2     3    1
    12     3     4    1
    13     4    17    1
    14    17    18    1
    15    18    19    1
    16    19    20    1
    17    20    21    1
    18    21    22   ar
    19    22    23   ar
    20    23    24   ar
    21    24    25   ar
    22    25    26   ar
    23    26    27    1
    24     4     5   am
    25     5     6    2
    26    11    12   ar
    27    12     7   ar
    28     5     1   am
    29    27    19    1
    30    26    21   ar
@<TRIPOS>MOLECULE
*****
 27 30 0 0 0
SMALL
GASTEIGER

@<TRIPOS>ATOM
      1 N         142.6596  142.2197  161.7901 N.am    1  UNL1       -0.2413
      2 C         143.0450  141.1206  160.8448 C.3     1  UNL1        0.1212
      3 C         144.0364  140.2364  161.5414 C.3     1  UNL1        0.1169
      4 N         144.2637  140.7890  162.9173 N.am    1  UNL1       -0.2606
      5 C         143.4128  142.0147  163.0710 C.2     1  UNL1        0.3111
      6 O         143.3297  142.8830  164.2912 O.2     1  UNL1       -0.2520
      7 C         139.4985  144.6027  162.0707 C.ar    1  UNL1        0.1396
      8 C         139.7538  145.5472  160.9337 C.ar    1  UNL1        0.0370
      9 C         140.9777  145.3826  160.0822 C.ar    1  UNL1        0.0044
     10 C         141.9463  144.2734  160.3677 C.ar    1  UNL1        0.0152
     11 C         141.6910  143.3288  161.5046 C.ar    1  UNL1        0.0584
     12 C         140.4672  143.4935  162.3561 C.ar    1  UNL1        0.0518
     13 O         138.2746  144.7673  162.9221 O.3     1  UNL1       -0.4791
     14 C         138.6499  144.9091  165.4890 C.3     1  UNL1        0.0472
     15 C         138.2154  144.1339  164.2807 C.3     1  UNL1        0.1661
     16 C         137.7216  142.7255  164.4307 C.3     1  UNL1        0.0472
     17 C         145.1810  140.2164  163.9570 C.3     1  UNL1        0.1123
     18 C         144.6875  139.1463  164.8850 C.3     1  UNL1        0.0944
     19 N         143.2265  139.0516  165.2112 N.3     1  UNL1       -0.2637
     20 C         142.5016  139.8531  166.2514 C.3     1  UNL1        0.0992
     21 C         141.0609  139.4356  166.2375 C.ar    1  UNL1       -0.0088
     22 C         139.8784  139.8834  167.0444 C.ar    1  UNL1       -0.0032
     23 C         138.5304  139.2715  166.8025 C.ar    1  UNL1       -0.0003
     24 C         138.3649  138.2120  165.7538 C.ar    1  UNL1       -0.0003
     25 C         139.5475  137.7642  164.9469 C.ar    1  UNL1       -0.0032
     26 C         140.8954  138.3760  165.1888 C.ar    1  UNL1       -0.0088
     27 C         142.2339  138.1387  164.5545 C.3     1  UNL1        0.0992
@<TRIPOS>BOND
     1    14    15    1
     2    15    16    1
     3    15    13    1
     4    13     7    1
     5     7     8   ar
     6     8     9   ar
     7     9    10   ar
     8    10    11   ar
     9    11     1    1
    10     1     2    1
    11     2     3    1
    12     3     4    1
    13     4    17    1
    14    17    18    1
    15    18    19    1
    16    19    20    1
    17    20    21    1
    18    21    22   ar
    19    22    23   ar
    20    23    24   ar
    21    24    25   ar
    22    25    26   ar
    23    26    27    1
    24     4     5   am
    25     5     6    2
    26    11    12   ar
    27    12     7   ar
    28     5     1   am
    29    27    19    1
    30    26    21   ar
@<TRIPOS>MOLECULE
*****
 27 30 0 0 0
SMALL
GASTEIGER

@<TRIPOS>ATOM
      1 N         142.2033  143.0495  162.4188 N.am    1  UNL1       -0.2413
      2 C         142.0040  143.4453  160.9857 C.3     1  UNL1        0.1212
      3 C         140.7034  144.1859  160.8859 C.3     1  UNL1        0.1169
      4 N         140.0989  144.2478  162.2573 N.am    1  UNL1       -0.2606
      5 C         141.0258  143.5455  163.2046 C.2     1  UNL1        0.3111
      6 O         140.8128  143.3700  164.6790 O.2     1  UNL1       -0.2520
      7 C         144.3194  140.3195  164.3729 C.ar    1  UNL1        0.1396
      8 C         145.7165  140.7737  164.0702 C.ar    1  UNL1        0.0370
      9 C         145.9426  141.9865  163.2170 C.ar    1  UNL1        0.0044
     10 C         144.7715  142.7451  162.6665 C.ar    1  UNL1        0.0152
     11 C         143.3744  142.2910  162.9692 C.ar    1  UNL1        0.0584
     12 C         143.1483  141.0781  163.8224 C.ar    1  UNL1        0.0518
     13 O         144.0933  139.1067  165.2262 O.3     1  UNL1       -0.4791
     14 C         142.0183  139.3582  166.7692 C.3     1  UNL1        0.0472
     15 C         142.6982  138.7043  165.6031 C.3     1  UNL1        0.1661
     16 C         141.9832  137.6480  164.8139 C.3     1  UNL1        0.0472
     17 C         138.7961  144.8979  162.6180 C.3     1  UNL1        0.1123
     18 C         137.6385  144.0579  163.0702 C.3     1  UNL1        0.0944
     19 N         137.8479  142.6111  163.4063 N.3     1  UNL1       -0.2637
     20 C         137.9393  142.0308  164.7864 C.3     1  UNL1        0.0992
     21 C         138.1505  140.5517  164.6544 C.ar    1  UNL1       -0.0088
     22 C         138.3122  139.4657  165.6763 C.ar    1  UNL1       -0.0032
     23 C         138.5130  138.0458  165.2365 C.ar    1  UNL1       -0.0003
     24 C         138.5520  137.7119  163.7746 C.ar    1  UNL1       -0.0003
     25 C         138.3902  138.7978  162.7527 C.ar    1  UNL1       -0.0032
     26 C         138.1895  140.2177  163.1925 C.ar    1  UNL1       -0.0088
     27 C         138.0025  141.4905  162.4212 C.3     1  UNL1        0.0992
@<TRIPOS>BOND
     1    14    15    1
     2    15    16    1
     3    15    13    1
     4    13     7    1
     5     7     8   ar
     6     8     9   ar
     7     9    10   ar
     8    10    11   ar
     9    11     1    1
    10     1     2    1
    11     2     3    1
    12     3     4    1
    13     4    17    1
    14    17    18    1
    15    18    19    1
    16    19    20    1
    17    20    21    1
    18    21    22   ar
    19    22    23   ar
    20    23    24   ar
    21    24    25   ar
    22    25    26   ar
    23    26    27    1
    24     4     5   am
    25     5     6    2
    26    11    12   ar
    27    12     7   ar
    28     5     1   am
    29    27    19    1
    30    26    21   ar
@<TRIPOS>MOLECULE
*****
 27 30 0 0 0
SMALL
GASTEIGER

@<TRIPOS>ATOM
      1 N         138.6945  141.7759  163.4789 N.am    1  UNL1       -0.2413
      2 C         137.9312  142.4928  164.5530 C.3     1  UNL1        0.1212
      3 C         137.9319  143.9563  164.2241 C.3     1  UNL1        0.1169
      4 N         138.6955  144.1439  162.9467 N.am    1  UNL1       -0.2606
      5 C         139.1668  142.7964  162.4862 C.2     1  UNL1        0.3111
      6 O         139.9696  142.5182  161.2500 O.2     1  UNL1       -0.2520
      7 C         140.3304  138.2145  164.1030 C.ar    1  UNL1        0.1396
      8 C         139.4368  137.3425  163.2716 C.ar    1  UNL1        0.0370
      9 C         138.2958  137.9484  162.5093 C.ar    1  UNL1        0.0044
     10 C         138.0483  139.4262  162.5784 C.ar    1  UNL1        0.0152
     11 C         138.9419  140.2982  163.4098 C.ar    1  UNL1        0.0584
     12 C         140.0829  139.6923  164.1721 C.ar    1  UNL1        0.0518
     13 O         141.4714  137.6086  164.8652 O.3     1  UNL1       -0.4791
     14 C         143.5574  138.9084  164.0232 C.3     1  UNL1        0.0472
     15 C         142.6979  138.4231  165.1526 C.3     1  UNL1        0.1661
     16 C         143.0647  138.7522  166.5693 C.3     1  UNL1        0.0472
     17 C         138.9442  145.4498  162.2519 C.3     1  UNL1        0.1123
     18 C         140.3417  145.9815  162.1322 C.3     1  UNL1        0.0944
     19 N         141.5067  145.1253  162.5317 N.3     1  UNL1       -0.2637
     20 C         142.4165  144.3830  161.5983 C.3     1  UNL1        0.0992
     21 C         143.4386  143.6600  162.4244 C.ar    1  UNL1       -0.0088
     22 C         144.5865  142.7708  162.0484 C.ar    1  UNL1       -0.0032
     23 C         145.4564  142.1770  163.1164 C.ar    1  UNL1       -0.0003
     24 C         145.1783  142.4724  164.5605 C.ar    1  UNL1       -0.0003
     25 C         144.0303  143.3616  164.9366 C.ar    1  UNL1       -0.0032
     26 C         143.1605  143.9554  163.8685 C.ar    1  UNL1       -0.0088
     27 C         141.9665  144.8610  163.9348 C.3     1  UNL1        0.0992
@<TRIPOS>BOND
     1    14    15    1
     2    15    16    1
     3    15    13    1
     4    13     7    1
     5     7     8   ar
     6     8     9   ar
     7     9    10   ar
     8    10    11   ar
     9    11     1    1
    10     1     2    1
    11     2     3    1
    12     3     4    1
    13     4    17    1
    14    17    18    1
    15    18    19    1
    16    19    20    1
    17    20    21    1
    18    21    22   ar
    19    22    23   ar
    20    23    24   ar
    21    24    25   ar
    22    25    26   ar
    23    26    27    1
    24     4     5   am
    25     5     6    2
    26    11    12   ar
    27    12     7   ar
    28     5     1   am
    29    27    19    1
    30    26    21   ar
@<TRIPOS>MOLECULE
*****
 27 30 0 0 0
SMALL
GASTEIGER

@<TRIPOS>ATOM
      1 N         141.0806  138.5395  163.8909 N.am    1  UNL1       -0.2413
      2 C         141.8332  138.2914  162.6173 C.3     1  UNL1        0.1212
      3 C         140.8333  138.1476  161.5084 C.3     1  UNL1        0.1169
      4 N         139.4626  138.3068  162.0968 N.am    1  UNL1       -0.2606
      5 C         139.6155  138.5490  163.5692 C.2     1  UNL1        0.3111
      6 O         138.4993  138.7632  164.5481 O.2     1  UNL1       -0.2520
      7 C         141.5948  139.8045  167.6171 C.ar    1  UNL1        0.1396
      8 C         142.8988  139.1483  167.9619 C.ar    1  UNL1        0.0370
      9 C         143.5968  138.2892  166.9496 C.ar    1  UNL1        0.0044
     10 C         142.9908  138.0862  165.5926 C.ar    1  UNL1        0.0152
     11 C         141.6867  138.7424  165.2478 C.ar    1  UNL1        0.0584
     12 C         140.9887  139.6015  166.2601 C.ar    1  UNL1        0.0518
     13 O         140.8968  140.6636  168.6294 O.3     1  UNL1       -0.4791
     14 C         141.8104  142.8877  169.6136 C.3     1  UNL1        0.0472
     15 C         141.0274  142.1566  168.5638 C.3     1  UNL1        0.1661
     16 C         140.3751  142.9182  167.4483 C.3     1  UNL1        0.0472
     17 C         138.1667  138.2363  161.3448 C.3     1  UNL1        0.1123
     18 C         137.4067  139.4932  161.0406 C.3     1  UNL1        0.0944
     19 N         137.7959  140.7831  161.6998 N.3     1  UNL1       -0.2637
     20 C         137.2857  141.2895  163.0163 C.3     1  UNL1        0.0992
     21 C         137.9380  142.6125  163.2885 C.ar    1  UNL1       -0.0088
     22 C         137.8184  143.5739  164.4335 C.ar    1  UNL1       -0.0032
     23 C         138.6121  144.8467  164.4302 C.ar    1  UNL1       -0.0003
     24 C         139.5255  145.1580  163.2819 C.ar    1  UNL1       -0.0003
     25 C         139.6452  144.1966  162.1368 C.ar    1  UNL1       -0.0032
     26 C         138.8514  142.9238  162.1401 C.ar    1  UNL1       -0.0088
     27 C         138.7635  141.7932  161.1583 C.3     1  UNL1        0.0992
@<TRIPOS>BOND
     1    14    15    1
     2    15    16    1
     3    15    13    1
     4    13     7    1
     5     7     8   ar
     6     8     9   ar
     7     9    10   ar
     8    10    11   ar
     9    11     1    1
    10     1     2    1
    11     2     3    1
    12     3     4    1
    13     4    17    1
    14    17    18    1
    15    18    19    1
    16    19    20    1
    17    20    21    1
    18    21    22   ar
    19    22    23   ar
    20    23    24   ar
    21    24    25   ar
    22    25    26   ar
    23    26    27    1
    24     4     5   am
    25     5     6    2
    26    11    12   ar
    27    12     7   ar
    28     5     1   am
    29    27    19    1
    30    26    21   ar
@<TRIPOS>MOLECULE
*****
 27 30 0 0 0
SMALL
GASTEIGER

@<TRIPOS>ATOM
      1 N         143.9687  141.0539  163.7165 N.am    1  UNL1       -0.2413
      2 C         145.2266  141.8173  163.4254 C.3     1  UNL1        0.1212
      3 C         145.1106  142.3931  162.0451 C.3     1  UNL1        0.1169
      4 N         143.7808  141.9855  161.4832 N.am    1  UNL1       -0.2606
      5 C         143.0751  141.1579  162.5162 C.2     1  UNL1        0.3111
      6 O         141.7147  140.5423  162.3738 O.2     1  UNL1       -0.2520
      7 C         142.5730  140.2552  167.3447 C.ar    1  UNL1        0.1396
      8 C         143.0388  138.8406  167.5225 C.ar    1  UNL1        0.0370
      9 C         143.8146  138.1637  166.4317 C.ar    1  UNL1        0.0044
     10 C         144.1246  138.9014  165.1630 C.ar    1  UNL1        0.0152
     11 C         143.6588  140.3161  164.9851 C.ar    1  UNL1        0.0584
     12 C         142.8829  140.9930  166.0760 C.ar    1  UNL1        0.0518
     13 O         141.7971  140.9321  168.4355 O.3     1  UNL1       -0.4791
     14 C         139.4169  139.9730  168.0302 C.3     1  UNL1        0.0472
     15 C         140.5425  140.3030  168.9650 C.3     1  UNL1        0.1661
     16 C         140.4137  140.0038  170.4292 C.3     1  UNL1        0.0472
     17 C         143.2500  142.3429  160.1266 C.3     1  UNL1        0.1123
     18 C         142.1899  143.3952  159.9893 C.3     1  UNL1        0.0944
     19 N         141.2101  143.6225  161.1021 N.3     1  UNL1       -0.2637
     20 C         141.4945  144.3219  162.3982 C.3     1  UNL1        0.0992
     21 C         140.2340  144.3219  163.2113 C.ar    1  UNL1       -0.0088
     22 C         139.9172  144.8684  164.5718 C.ar    1  UNL1       -0.0032
     23 C         138.5369  144.7154  165.1387 C.ar    1  UNL1       -0.0003
     24 C         137.4735  144.0159  164.3451 C.ar    1  UNL1       -0.0003
     25 C         137.7903  143.4694  162.9846 C.ar    1  UNL1       -0.0032
     26 C         139.1706  143.6224  162.4177 C.ar    1  UNL1       -0.0088
     27 C         139.7738  143.1901  161.1142 C.3     1  UNL1        0.0992
@<TRIPOS>BOND
     1    14    15    1
     2    15    16    1
     3    15    13    1
     4    13     7    1
     5     7     8   ar
     6     8     9   ar
     7     9    10   ar
     8    10    11   ar
     9    11     1    1
    10     1     2    1
    11     2     3    1
    12     3     4    1
    13     4    17    1
    14    17    18    1
    15    18    19    1
    16    19    20    1
    17    20    21    1
    18    21    22   ar
    19    22    23   ar
    20    23    24   ar
    21    24    25   ar
    22    25    26   ar
    23    26    27    1
    24     4     5   am
    25     5     6    2
    26    11    12   ar
    27    12     7   ar
    28     5     1   am
    29    27    19    1
    30    26    21   ar
@<TRIPOS>MOLECULE
*****
 27 30 0 0 0
SMALL
GASTEIGER

@<TRIPOS>ATOM
      1 N         140.5519  142.4648  165.2050 N.am    1  UNL1       -0.2413
      2 C         139.9146  143.6597  164.5600 C.3     1  UNL1        0.1212
      3 C         141.0055  144.5100  163.9794 C.3     1  UNL1        0.1169
      4 N         142.3170  143.8406  164.2656 N.am    1  UNL1       -0.2606
      5 C         142.0366  142.5766  165.0231 C.2     1  UNL1        0.3111
      6 O         143.0611  141.5964  165.5126 O.2     1  UNL1       -0.2520
      7 C         139.4002  139.9551  168.0553 C.ar    1  UNL1        0.1396
      8 C         138.3893  139.1303  167.3153 C.ar    1  UNL1        0.0370
      9 C         138.0992  139.4170  165.8718 C.ar    1  UNL1        0.0044
     10 C         138.8201  140.5285  165.1683 C.ar    1  UNL1        0.0152
     11 C         139.8310  141.3533  165.9084 C.ar    1  UNL1        0.0584
     12 C         140.1211  141.0666  167.3519 C.ar    1  UNL1        0.0518
     13 O         139.6902  139.6684  169.4989 O.3     1  UNL1       -0.4791
     14 C         141.2120  141.1306  171.0141 C.3     1  UNL1        0.0472
     15 C         141.0429  139.9790  170.0681 C.3     1  UNL1        0.1661
     16 C         142.2263  139.1379  169.6913 C.3     1  UNL1        0.0472
     17 C         143.6711  144.3464  163.8648 C.3     1  UNL1        0.1123
     18 C         144.3636  143.7672  162.6670 C.3     1  UNL1        0.0944
     19 N         143.9486  142.4272  162.1357 N.3     1  UNL1       -0.2637
     20 C         142.7774  142.1591  161.2376 C.3     1  UNL1        0.0992
     21 C         142.7368  140.6863  160.9560 C.ar    1  UNL1       -0.0088
     22 C         141.8043  139.8470  160.1339 C.ar    1  UNL1       -0.0032
     23 C         142.0179  138.3655  160.0358 C.ar    1  UNL1       -0.0003
     24 C         143.1639  137.7234  160.7598 C.ar    1  UNL1       -0.0003
     25 C         144.0964  138.5628  161.5820 C.ar    1  UNL1       -0.0032
     26 C         143.8829  140.0442  161.6801 C.ar    1  UNL1       -0.0088
     27 C         144.6318  141.1202  162.4091 C.3     1  UNL1        0.0992
@<TRIPOS>BOND
     1    14    15    1
     2    15    16    1
     3    15    13    1
     4    13     7    1
     5     7     8   ar
     6     8     9   ar
     7     9    10   ar
     8    10    11   ar
     9    11     1    1
    10     1     2    1
    11     2     3    1
    12     3     4    1
    13     4    17    1
    14    17    18    1
    15    18    19    1
    16    19    20    1
    17    20    21    1
    18    21    22   ar
    19    22    23   ar
    20    23    24   ar
    21    24    25   ar
    22    25    26   ar
    23    26    27    1
    24     4     5   am
    25     5     6    2
    26    11    12   ar
    27    12     7   ar
    28     5     1   am
    29    27    19    1
    30    26    21   ar
@<TRIPOS>MOLECULE
*****
 27 30 0 0 0
SMALL
GASTEIGER

@<TRIPOS>ATOM
      1 N         142.7398  143.1178  162.4088 N.am    1  UNL1       -0.2413
      2 C         143.7194  143.0527  161.2747 C.3     1  UNL1        0.1212
      3 C         144.8900  142.2272  161.7199 C.3     1  UNL1        0.1169
      4 N         144.6339  141.7821  163.1294 N.am    1  UNL1       -0.2606
      5 C         143.3050  142.3325  163.5551 C.2     1  UNL1        0.3111
      6 O         142.6554  142.1327  164.8922 O.2     1  UNL1       -0.2520
      7 C         138.8429  143.8187  162.6778 C.ar    1  UNL1        0.1396
      8 C         138.7978  145.2877  162.3779 C.ar    1  UNL1        0.0370
      9 C         140.0667  146.0334  162.0882 C.ar    1  UNL1        0.0044
     10 C         141.3807  145.3101  162.0986 C.ar    1  UNL1        0.0152
     11 C         141.4259  143.8411  162.3985 C.ar    1  UNL1        0.0584
     12 C         140.1570  143.0954  162.6881 C.ar    1  UNL1        0.0518
     13 O         137.5740  143.0730  162.9674 O.3     1  UNL1       -0.4791
     14 C         137.7050  140.9830  164.5052 C.3     1  UNL1        0.0472
     15 C         137.6014  141.5825  163.1341 C.3     1  UNL1        0.1661
     16 C         137.5253  140.6915  161.9298 C.3     1  UNL1        0.0472
     17 C         145.5464  140.9352  163.9661 C.3     1  UNL1        0.1123
     18 C         145.1634  139.5240  164.3000 C.3     1  UNL1        0.0944
     19 N         143.7452  139.0694  164.1210 N.3     1  UNL1       -0.2637
     20 C         143.0698  138.7824  162.8128 C.3     1  UNL1        0.0992
     21 C         141.6606  138.3576  163.1020 C.ar    1  UNL1       -0.0088
     22 C         140.5302  137.9517  162.2035 C.ar    1  UNL1       -0.0032
     23 C         139.2042  137.5702  162.7920 C.ar    1  UNL1       -0.0003
     24 C         139.0087  137.5946  164.2790 C.ar    1  UNL1       -0.0003
     25 C         140.1391  138.0005  165.1775 C.ar    1  UNL1       -0.0032
     26 C         141.4651  138.3820  164.5890 C.ar    1  UNL1       -0.0088
     27 C         142.7535  138.8219  165.2188 C.3     1  UNL1        0.0992
@<TRIPOS>BOND
     1    14    15    1
     2    15    16    1
     3    15    13    1
     4    13     7    1
     5     7     8   ar
     6     8     9   ar
     7     9    10   ar
     8    10    11   ar
     9    11     1    1
    10     1     2    1
    11     2     3    1
    12     3     4    1
    13     4    17    1
    14    17    18    1
    15    18    19    1
    16    19    20    1
    17    20    21    1
    18    21    22   ar
    19    22    23   ar
    20    23    24   ar
    21    24    25   ar
    22    25    26   ar
    23    26    27    1
    24     4     5   am
    25     5     6    2
    26    11    12   ar
    27    12     7   ar
    28     5     1   am
    29    27    19    1
    30    26    21   ar
