@<TRIPOS>MOLECULE
*****
 37 41 0 0 0
SMALL
GASTEIGER

@<TRIPOS>ATOM
      1 C         140.3875  138.8990  160.5390 C.ar    1  UNL1        0.1664
      2 N         140.3074  140.3695  160.8247 N.ar    1  UNL1       -0.2120
      3 C         139.8207  140.8486  162.1602 C.ar    1  UNL1        0.1318
      4 C         139.4139  139.8573  163.2100 C.ar    1  UNL1        0.0491
      5 C         138.9272  140.3364  164.5454 C.ar    1  UNL1        0.0041
      6 C         138.5205  139.3452  165.5952 C.ar    1  UNL1        0.0002
      7 C         138.6005  137.8748  165.3095 C.ar    1  UNL1        0.0015
      8 C         139.0873  137.3957  163.9740 C.ar    1  UNL1        0.0192
      9 C         139.4940  138.3869  162.9242 C.ar    1  UNL1        0.0856
     10 N         139.9808  137.9078  161.5888 N.ar    1  UNL1       -0.2264
     11 C         142.3443  138.2500  158.9579 C.ar    1  UNL1        0.1277
     12 C         142.8311  137.7709  157.6224 C.ar    1  UNL1        0.0407
     13 C         141.8478  137.4617  156.5326 C.ar    1  UNL1        0.1003
     14 N         140.3779  137.6317  156.7782 N.ar    1  UNL1       -0.2421
     15 C         139.8911  138.1108  158.1137 C.ar    1  UNL1        0.1032
     16 C         140.8743  138.4199  159.2035 C.ar    1  UNL1        0.0735
     17 N         144.3106  138.8683  161.1377 N.3     1  UNL1       -0.2035
     18 S         143.3274  138.5591  160.0477 S.O2    1  UNL1        0.0573
     19 O         143.1824  137.1624  160.5748 O.2     1  UNL1       -0.1532
     20 O         143.4725  139.9559  159.5207 O.2     1  UNL1       -0.1532
     21 H         144.6265  139.8339  161.0468 H       1  UNL1        0.1442
     22 H         145.1108  138.2403  161.0619 H       1  UNL1        0.1442
     23 C         138.8471  141.8068  164.8311 C.ar    1  UNL1        0.0001
     24 C         139.9349  142.4788  165.6154 C.ar    1  UNL1        0.0000
     25 C         139.8548  143.9492  165.9011 C.ar    1  UNL1        0.0000
     26 C         138.6869  144.7476  165.4025 C.ar    1  UNL1        0.0000
     27 C         137.5991  144.0755  164.6181 C.ar    1  UNL1        0.0000
     28 C         137.6792  142.6052  164.3325 C.ar    1  UNL1        0.0000
     29 N         139.7406  142.3189  162.4459 N.pl3   1  UNL1       -0.3131
     30 H         138.9591  142.6867  162.9184 H       1  UNL1        0.1485
     31 C         140.8512  143.2289  162.0117 C.3     1  UNL1        0.1348
     32 C         142.0149  143.4804  162.9241 C.ar    1  UNL1        0.0788
     33 C         142.4050  144.8863  163.2720 C.ar    1  UNL1        0.0165
     34 C         143.5687  145.1379  164.1845 C.ar    1  UNL1        0.0029
     35 C         144.3422  143.9834  164.7491 C.ar    1  UNL1        0.0207
     36 C         143.9521  142.5773  164.4012 C.ar    1  UNL1        0.0985
     37 N         142.7884  142.3259  163.4887 N.ar    1  UNL1       -0.2464
@<TRIPOS>BOND
     1    17    18    1
     2    18    19    2
     3    18    20    2
     4    18    11    1
     5    11    12   ar
     6    12    13   ar
     7    13    14   ar
     8    14    15   ar
     9    15    16   ar
    10    16     1    1
    11     1     2   ar
    12     2     3   ar
    13     3    29    1
    14    29    31    1
    15    31    32    1
    16    32    33   ar
    17    33    34   ar
    18    34    35   ar
    19    35    36   ar
    20    36    37   ar
    21     3     4   ar
    22     4     5   ar
    23     5    23    1
    24    23    24   ar
    25    24    25   ar
    26    25    26   ar
    27    26    27   ar
    28    27    28   ar
    29     5     6   ar
    30     6     7   ar
    31     7     8   ar
    32     8     9   ar
    33     9    10   ar
    34    16    11   ar
    35    10     1   ar
    36    37    32   ar
    37     9     4   ar
    38    28    23   ar
    39    17    21    1
    40    17    22    1
    41    29    30    1
@<TRIPOS>MOLECULE
*****
 37 41 0 0 0
SMALL
GASTEIGER

@<TRIPOS>ATOM
      1 C         140.0894  141.1373  163.2309 C.ar    1  UNL1        0.1664
      2 N         141.0380  141.8909  164.1155 N.ar    1  UNL1       -0.2120
      3 C         140.9783  141.7120  165.6036 C.ar    1  UNL1        0.1318
      4 C         139.9701  140.7796  166.2071 C.ar    1  UNL1        0.0491
      5 C         139.9104  140.6007  167.6952 C.ar    1  UNL1        0.0041
      6 C         138.9022  139.6684  168.2987 C.ar    1  UNL1        0.0002
      7 C         137.9537  138.9149  167.4141 C.ar    1  UNL1        0.0015
      8 C         138.0134  139.0938  165.9260 C.ar    1  UNL1        0.0192
      9 C         139.0216  140.0261  165.3225 C.ar    1  UNL1        0.0856
     10 N         139.0813  140.2050  163.8344 N.ar    1  UNL1       -0.2264
     11 C         139.3397  142.3936  161.0839 C.ar    1  UNL1        0.1277
     12 C         139.3994  142.5725  159.5958 C.ar    1  UNL1        0.0407
     13 C         140.2685  141.6740  158.7666 C.ar    1  UNL1        0.1003
     14 N         141.0778  140.5966  159.4256 N.ar    1  UNL1       -0.2421
     15 C         141.0181  140.4177  160.9137 C.ar    1  UNL1        0.1032
     16 C         140.1491  141.3162  161.7428 C.ar    1  UNL1        0.0735
     17 N         137.6016  144.1906  162.7422 N.3     1  UNL1       -0.2035
     18 S         138.4707  143.2921  161.9130 S.O2    1  UNL1        0.0573
     19 O         137.3800  142.2628  161.8852 O.2     1  UNL1       -0.1532
     20 O         139.5614  144.3214  161.9408 O.2     1  UNL1       -0.1532
     21 H         138.1039  145.0542  162.9480 H       1  UNL1        0.1442
     22 H         137.3617  143.7206  163.6151 H       1  UNL1        0.1442
     23 C         140.8590  141.3543  168.5798 C.ar    1  UNL1        0.0001
     24 C         140.4954  142.7222  169.0762 C.ar    1  UNL1        0.0000
     25 C         141.4439  143.4758  169.9608 C.ar    1  UNL1        0.0000
     26 C         142.7561  142.8613  170.3490 C.ar    1  UNL1        0.0000
     27 C         143.1197  141.4932  169.8526 C.ar    1  UNL1        0.0000
     28 C         142.1711  140.7398  168.9680 C.ar    1  UNL1        0.0000
     29 N         141.9268  142.4655  166.4882 N.pl3   1  UNL1       -0.3131
     30 H         141.5870  142.9481  167.2762 H       1  UNL1        0.1485
     31 C         143.3931  142.4838  166.1723 C.3     1  UNL1        0.1348
     32 C         143.8560  142.7826  164.7772 C.ar    1  UNL1        0.0788
     33 C         143.6407  144.1467  164.1916 C.ar    1  UNL1        0.0165
     34 C         144.1037  144.4456  162.7964 C.ar    1  UNL1        0.0029
     35 C         144.7818  143.3804  161.9869 C.ar    1  UNL1        0.0207
     36 C         144.9971  142.0163  162.5725 C.ar    1  UNL1        0.0985
     37 N         144.5342  141.7174  163.9676 N.ar    1  UNL1       -0.2464
@<TRIPOS>BOND
     1    17    18    1
     2    18    19    2
     3    18    20    2
     4    18    11    1
     5    11    12   ar
     6    12    13   ar
     7    13    14   ar
     8    14    15   ar
     9    15    16   ar
    10    16     1    1
    11     1     2   ar
    12     2     3   ar
    13     3    29    1
    14    29    31    1
    15    31    32    1
    16    32    33   ar
    17    33    34   ar
    18    34    35   ar
    19    35    36   ar
    20    36    37   ar
    21     3     4   ar
    22     4     5   ar
    23     5    23    1
    24    23    24   ar
    25    24    25   ar
    26    25    26   ar
    27    26    27   ar
    28    27    28   ar
    29     5     6   ar
    30     6     7   ar
    31     7     8   ar
    32     8     9   ar
    33     9    10   ar
    34    16    11   ar
    35    10     1   ar
    36    37    32   ar
    37     9     4   ar
    38    28    23   ar
    39    17    21    1
    40    17    22    1
    41    29    30    1
@<TRIPOS>MOLECULE
*****
 37 41 0 0 0
SMALL
GASTEIGER

@<TRIPOS>ATOM
      1 C         139.8160  140.6075  163.3928 C.ar    1  UNL1        0.1664
      2 N         140.8157  141.4064  164.1755 N.ar    1  UNL1       -0.2120
      3 C         140.8072  141.3566  165.6746 C.ar    1  UNL1        0.1318
      4 C         139.7989  140.5080  166.3911 C.ar    1  UNL1        0.0491
      5 C         139.7903  140.4583  167.8903 C.ar    1  UNL1        0.0041
      6 C         138.7821  139.6097  168.6068 C.ar    1  UNL1        0.0002
      7 C         137.7825  138.8109  167.8241 C.ar    1  UNL1        0.0015
      8 C         137.7910  138.8607  166.3250 C.ar    1  UNL1        0.0192
      9 C         138.7992  139.7092  165.6085 C.ar    1  UNL1        0.0856
     10 N         138.8078  139.7590  164.1093 N.ar    1  UNL1       -0.2264
     11 C         140.4327  139.5325  161.1094 C.ar    1  UNL1        0.1277
     12 C         140.4413  139.5823  159.6102 C.ar    1  UNL1        0.0407
     13 C         139.8416  140.7568  158.8954 C.ar    1  UNL1        0.1003
     14 N         139.2335  141.8815  159.6797 N.ar    1  UNL1       -0.2421
     15 C         139.2249  141.8318  161.1788 C.ar    1  UNL1        0.1032
     16 C         139.8245  140.6573  161.8937 C.ar    1  UNL1        0.0735
     17 N         141.6319  137.1835  162.5391 N.3     1  UNL1       -0.2035
     18 S         141.0323  138.3580  161.8242 S.O2    1  UNL1        0.0573
     19 O         139.7353  137.6161  161.6932 O.2     1  UNL1       -0.1532
     20 O         142.3293  139.1000  161.9553 O.2     1  UNL1       -0.1532
     21 H         142.5993  137.3929  162.7852 H       1  UNL1        0.1442
     22 H         141.6053  136.3653  161.9306 H       1  UNL1        0.1442
     23 C         140.7901  141.2571  168.6729 C.ar    1  UNL1        0.0001
     24 C         140.4675  142.6618  169.0886 C.ar    1  UNL1        0.0000
     25 C         141.4673  143.4606  169.8713 C.ar    1  UNL1        0.0000
     26 C         142.7895  142.8547  170.2382 C.ar    1  UNL1        0.0000
     27 C         143.1120  141.4500  169.8224 C.ar    1  UNL1        0.0000
     28 C         142.1123  140.6512  169.0398 C.ar    1  UNL1        0.0000
     29 N         141.8068  142.1554  166.4573 N.pl3   1  UNL1       -0.3131
     30 H         141.5086  142.7155  167.2100 H       1  UNL1        0.1485
     31 C         143.2610  142.1008  166.0931 C.3     1  UNL1        0.1348
     32 C         143.7178  142.5974  164.7535 C.ar    1  UNL1        0.0788
     33 C         143.4699  144.0228  164.3576 C.ar    1  UNL1        0.0165
     34 C         143.9267  144.5195  163.0179 C.ar    1  UNL1        0.0029
     35 C         144.6315  143.5908  162.0742 C.ar    1  UNL1        0.0207
     36 C         144.8794  142.1653  162.4701 C.ar    1  UNL1        0.0985
     37 N         144.4226  141.6687  163.8097 N.ar    1  UNL1       -0.2464
@<TRIPOS>BOND
     1    17    18    1
     2    18    19    2
     3    18    20    2
     4    18    11    1
     5    11    12   ar
     6    12    13   ar
     7    13    14   ar
     8    14    15   ar
     9    15    16   ar
    10    16     1    1
    11     1     2   ar
    12     2     3   ar
    13     3    29    1
    14    29    31    1
    15    31    32    1
    16    32    33   ar
    17    33    34   ar
    18    34    35   ar
    19    35    36   ar
    20    36    37   ar
    21     3     4   ar
    22     4     5   ar
    23     5    23    1
    24    23    24   ar
    25    24    25   ar
    26    25    26   ar
    27    26    27   ar
    28    27    28   ar
    29     5     6   ar
    30     6     7   ar
    31     7     8   ar
    32     8     9   ar
    33     9    10   ar
    34    16    11   ar
    35    10     1   ar
    36    37    32   ar
    37     9     4   ar
    38    28    23   ar
    39    17    21    1
    40    17    22    1
    41    29    30    1
@<TRIPOS>MOLECULE
*****
 37 41 0 0 0
SMALL
GASTEIGER

@<TRIPOS>ATOM
      1 C         142.2643  141.1210  160.9159 C.ar    1  UNL1        0.1664
      2 N         140.9101  140.8007  161.4760 N.ar    1  UNL1       -0.2120
      3 C         140.7913  140.1070  162.8007 C.ar    1  UNL1        0.1318
      4 C         142.0267  139.7337  163.5653 C.ar    1  UNL1        0.0491
      5 C         141.9080  139.0401  164.8900 C.ar    1  UNL1        0.0041
      6 C         143.1433  138.6668  165.6545 C.ar    1  UNL1        0.0002
      7 C         144.4974  138.9872  165.0944 C.ar    1  UNL1        0.0015
      8 C         144.6161  139.6809  163.7697 C.ar    1  UNL1        0.0192
      9 C         143.3808  140.0541  163.0052 C.ar    1  UNL1        0.0856
     10 N         143.4996  140.7478  161.6805 N.ar    1  UNL1       -0.2264
     11 C         142.2810  143.3093  159.5155 C.ar    1  UNL1        0.1277
     12 C         142.3998  144.0029  158.1908 C.ar    1  UNL1        0.0407
     13 C         142.6206  143.2019  156.9419 C.ar    1  UNL1        0.1003
     14 N         142.7227  141.7074  157.0177 N.ar    1  UNL1       -0.2421
     15 C         142.6039  141.0137  158.3424 C.ar    1  UNL1        0.1032
     16 C         142.3831  141.8147  159.5913 C.ar    1  UNL1        0.0735
     17 N         141.8393  144.9112  162.0133 N.3     1  UNL1       -0.2035
     18 S         142.0601  144.1102  160.7643 S.O2    1  UNL1        0.0573
     19 O         143.5231  144.0179  161.0823 O.2     1  UNL1       -0.1532
     20 O         140.5972  144.2026  160.4464 O.2     1  UNL1       -0.1532
     21 H         140.8513  145.1520  162.0925 H       1  UNL1        0.1442
     22 H         142.3952  145.7654  161.9721 H       1  UNL1        0.1442
     23 C         140.5538  138.7197  165.4500 C.ar    1  UNL1        0.0001
     24 C         139.9393  139.6149  166.4849 C.ar    1  UNL1        0.0000
     25 C         138.5851  139.2945  167.0450 C.ar    1  UNL1        0.0000
     26 C         137.8455  138.0790  166.5702 C.ar    1  UNL1        0.0000
     27 C         138.4601  137.1838  165.5352 C.ar    1  UNL1        0.0000
     28 C         139.8142  137.5042  164.9752 C.ar    1  UNL1        0.0000
     29 N         139.4372  139.7866  163.3608 N.pl3   1  UNL1       -0.3131
     30 H         139.2820  138.9249  163.8108 H       1  UNL1        0.1485
     31 C         138.3196  140.7793  163.2352 C.3     1  UNL1        0.1348
     32 C         138.5293  142.2025  163.6600 C.ar    1  UNL1        0.0788
     33 C         139.0670  142.5057  165.0270 C.ar    1  UNL1        0.0165
     34 C         139.2767  143.9289  165.4518 C.ar    1  UNL1        0.0029
     35 C         138.9486  145.0490  164.5095 C.ar    1  UNL1        0.0207
     36 C         138.4108  144.7457  163.1424 C.ar    1  UNL1        0.0985
     37 N         138.2011  143.3225  162.7177 N.ar    1  UNL1       -0.2464
@<TRIPOS>BOND
     1    17    18    1
     2    18    19    2
     3    18    20    2
     4    18    11    1
     5    11    12   ar
     6    12    13   ar
     7    13    14   ar
     8    14    15   ar
     9    15    16   ar
    10    16     1    1
    11     1     2   ar
    12     2     3   ar
    13     3    29    1
    14    29    31    1
    15    31    32    1
    16    32    33   ar
    17    33    34   ar
    18    34    35   ar
    19    35    36   ar
    20    36    37   ar
    21     3     4   ar
    22     4     5   ar
    23     5    23    1
    24    23    24   ar
    25    24    25   ar
    26    25    26   ar
    27    26    27   ar
    28    27    28   ar
    29     5     6   ar
    30     6     7   ar
    31     7     8   ar
    32     8     9   ar
    33     9    10   ar
    34    16    11   ar
    35    10     1   ar
    36    37    32   ar
    37     9     4   ar
    38    28    23   ar
    39    17    21    1
    40    17    22    1
    41    29    30    1
@<TRIPOS>MOLECULE
*****
 37 41 0 0 0
SMALL
GASTEIGER

@<TRIPOS>ATOM
      1 C         140.8276  140.4831  162.8511 C.ar    1  UNL1        0.1664
      2 N         140.1430  141.3176  163.8928 N.ar    1  UNL1       -0.2120
      3 C         140.5195  141.1715  165.3374 C.ar    1  UNL1        0.1318
      4 C         141.5807  140.1908  165.7403 C.ar    1  UNL1        0.0491
      5 C         141.9573  140.0447  167.1849 C.ar    1  UNL1        0.0041
      6 C         143.0184  139.0641  167.5879 C.ar    1  UNL1        0.0002
      7 C         143.7029  138.2297  166.5463 C.ar    1  UNL1        0.0015
      8 C         143.3264  138.3758  165.1017 C.ar    1  UNL1        0.0192
      9 C         142.2653  139.3564  164.6987 C.ar    1  UNL1        0.0856
     10 N         141.8887  139.5025  163.2541 N.ar    1  UNL1       -0.2264
     11 C         139.4687  139.6792  160.7877 C.ar    1  UNL1        0.1277
     12 C         139.0922  139.8254  159.3431 C.ar    1  UNL1        0.0407
     13 C         139.6979  140.9214  158.5173 C.ar    1  UNL1        0.1003
     14 N         140.6801  141.8713  159.1361 N.ar    1  UNL1       -0.2421
     15 C         141.0567  141.7251  160.5807 C.ar    1  UNL1        0.1032
     16 C         140.4510  140.6292  161.4065 C.ar    1  UNL1        0.0735
     17 N         138.2574  137.4872  162.4393 N.3     1  UNL1       -0.2035
     18 S         138.8631  138.5833  161.6135 S.O2    1  UNL1        0.0573
     19 O         139.9921  137.6722  161.2325 O.2     1  UNL1       -0.1532
     20 O         137.7340  139.4943  161.9945 O.2     1  UNL1       -0.1532
     21 H         137.3963  137.8228  162.8708 H       1  UNL1        0.1442
     22 H         138.9151  137.2064  163.1667 H       1  UNL1        0.1442
     23 C         141.2726  140.8792  168.2265 C.ar    1  UNL1        0.0001
     24 C         141.8627  142.1946  168.6406 C.ar    1  UNL1        0.0000
     25 C         141.1781  143.0291  169.6823 C.ar    1  UNL1        0.0000
     26 C         139.9034  142.5482  170.3098 C.ar    1  UNL1        0.0000
     27 C         139.3133  141.2327  169.8956 C.ar    1  UNL1        0.0000
     28 C         139.9979  140.3983  168.8541 C.ar    1  UNL1        0.0000
     29 N         139.8350  142.0059  166.3790 N.pl3   1  UNL1       -0.3131
     30 H         139.4092  141.5737  167.1543 H       1  UNL1        0.1485
     31 C         139.7990  143.4990  166.2393 C.3     1  UNL1        0.1348
     32 C         139.7089  144.1230  164.8782 C.ar    1  UNL1        0.0788
     33 C         138.3849  144.2086  164.1786 C.ar    1  UNL1        0.0165
     34 C         138.2947  144.8326  162.8175 C.ar    1  UNL1        0.0029
     35 C         139.5287  145.3710  162.1561 C.ar    1  UNL1        0.0207
     36 C         140.8528  145.2853  162.8558 C.ar    1  UNL1        0.0985
     37 N         140.9429  144.6614  164.2168 N.ar    1  UNL1       -0.2464
@<TRIPOS>BOND
     1    17    18    1
     2    18    19    2
     3    18    20    2
     4    18    11    1
     5    11    12   ar
     6    12    13   ar
     7    13    14   ar
     8    14    15   ar
     9    15    16   ar
    10    16     1    1
    11     1     2   ar
    12     2     3   ar
    13     3    29    1
    14    29    31    1
    15    31    32    1
    16    32    33   ar
    17    33    34   ar
    18    34    35   ar
    19    35    36   ar
    20    36    37   ar
    21     3     4   ar
    22     4     5   ar
    23     5    23    1
    24    23    24   ar
    25    24    25   ar
    26    25    26   ar
    27    26    27   ar
    28    27    28   ar
    29     5     6   ar
    30     6     7   ar
    31     7     8   ar
    32     8     9   ar
    33     9    10   ar
    34    16    11   ar
    35    10     1   ar
    36    37    32   ar
    37     9     4   ar
    38    28    23   ar
    39    17    21    1
    40    17    22    1
    41    29    30    1
@<TRIPOS>MOLECULE
*****
 37 41 0 0 0
SMALL
GASTEIGER

@<TRIPOS>ATOM
      1 C         140.2897  139.4573  163.4689 C.ar    1  UNL1        0.1664
      2 N         141.2639  140.3309  164.2025 N.ar    1  UNL1       -0.2120
      3 C         141.0938  140.5735  165.6729 C.ar    1  UNL1        0.1318
      4 C         139.9497  139.9426  166.4098 C.ar    1  UNL1        0.0491
      5 C         139.7796  140.1853  167.8802 C.ar    1  UNL1        0.0041
      6 C         138.6355  139.5544  168.6171 C.ar    1  UNL1        0.0002
      7 C         137.6615  138.6809  167.8835 C.ar    1  UNL1        0.0015
      8 C         137.8315  138.4382  166.4131 C.ar    1  UNL1        0.0192
      9 C         138.9756  139.0691  165.6762 C.ar    1  UNL1        0.0856
     10 N         139.1457  138.8265  164.2058 N.ar    1  UNL1       -0.2264
     11 C         139.6243  139.9748  161.0113 C.ar    1  UNL1        0.1277
     12 C         139.7944  139.7322  159.5409 C.ar    1  UNL1        0.0407
     13 C         140.7999  138.7294  159.0576 C.ar    1  UNL1        0.1003
     14 N         141.6353  137.9693  160.0447 N.ar    1  UNL1       -0.2421
     15 C         141.4652  138.2120  161.5151 C.ar    1  UNL1        0.1032
     16 C         140.4598  139.2147  161.9985 C.ar    1  UNL1        0.0735
     17 N         137.6135  141.9803  161.9781 N.3     1  UNL1       -0.2035
     18 S         138.6189  140.9775  161.4947 S.O2    1  UNL1        0.0573
     19 O         139.6996  142.0129  161.5947 O.2     1  UNL1       -0.1532
     20 O         137.5382  139.9421  161.3946 O.2     1  UNL1       -0.1532
     21 H         136.6927  141.5438  162.0235 H       1  UNL1        0.1442
     22 H         137.5839  142.7701  161.3332 H       1  UNL1        0.1442
     23 C         140.7537  141.0588  168.6138 C.ar    1  UNL1        0.0001
     24 C         140.4196  142.4969  168.8786 C.ar    1  UNL1        0.0000
     25 C         141.3937  143.3705  169.6122 C.ar    1  UNL1        0.0000
     26 C         142.7019  142.8059  170.0809 C.ar    1  UNL1        0.0000
     27 C         143.0361  141.3677  169.8160 C.ar    1  UNL1        0.0000
     28 C         142.0620  140.4942  169.0825 C.ar    1  UNL1        0.0000
     29 N         142.0679  141.4471  166.4065 N.pl3   1  UNL1       -0.3131
     30 H         142.4230  141.1630  167.2797 H       1  UNL1        0.1485
     31 C         142.5008  142.7534  165.8097 C.3     1  UNL1        0.1348
     32 C         141.5423  143.5518  164.9768 C.ar    1  UNL1        0.0788
     33 C         140.1271  143.7412  165.4364 C.ar    1  UNL1        0.0165
     34 C         139.1684  144.5396  164.6036 C.ar    1  UNL1        0.0029
     35 C         139.6251  145.1486  163.3111 C.ar    1  UNL1        0.0207
     36 C         141.0404  144.9592  162.8515 C.ar    1  UNL1        0.0985
     37 N         141.9989  144.1608  163.6843 N.ar    1  UNL1       -0.2464
@<TRIPOS>BOND
     1    17    18    1
     2    18    19    2
     3    18    20    2
     4    18    11    1
     5    11    12   ar
     6    12    13   ar
     7    13    14   ar
     8    14    15   ar
     9    15    16   ar
    10    16     1    1
    11     1     2   ar
    12     2     3   ar
    13     3    29    1
    14    29    31    1
    15    31    32    1
    16    32    33   ar
    17    33    34   ar
    18    34    35   ar
    19    35    36   ar
    20    36    37   ar
    21     3     4   ar
    22     4     5   ar
    23     5    23    1
    24    23    24   ar
    25    24    25   ar
    26    25    26   ar
    27    26    27   ar
    28    27    28   ar
    29     5     6   ar
    30     6     7   ar
    31     7     8   ar
    32     8     9   ar
    33     9    10   ar
    34    16    11   ar
    35    10     1   ar
    36    37    32   ar
    37     9     4   ar
    38    28    23   ar
    39    17    21    1
    40    17    22    1
    41    29    30    1
@<TRIPOS>MOLECULE
*****
 37 41 0 0 0
SMALL
GASTEIGER

@<TRIPOS>ATOM
      1 C         142.5510  141.2940  160.8664 C.ar    1  UNL1        0.1664
      2 N         141.1897  140.9443  161.3906 N.ar    1  UNL1       -0.2120
      3 C         141.0525  140.2190  162.6964 C.ar    1  UNL1        0.1318
      4 C         142.2766  139.8434  163.4780 C.ar    1  UNL1        0.0491
      5 C         142.1394  139.1181  164.7838 C.ar    1  UNL1        0.0041
      6 C         143.3633  138.7425  165.5653 C.ar    1  UNL1        0.0002
      7 C         144.7245  139.0922  165.0410 C.ar    1  UNL1        0.0015
      8 C         144.8617  139.8176  163.7353 C.ar    1  UNL1        0.0192
      9 C         143.6377  140.1931  162.9537 C.ar    1  UNL1        0.0856
     10 N         143.7749  140.9185  161.6479 N.ar    1  UNL1       -0.2264
     11 C         142.8798  141.2460  158.2896 C.ar    1  UNL1        0.1277
     12 C         143.0170  141.9714  156.9838 C.ar    1  UNL1        0.0407
     13 C         142.9626  143.4700  156.9490 C.ar    1  UNL1        0.1003
     14 N         142.7710  144.2433  158.2200 N.ar    1  UNL1       -0.2421
     15 C         142.6338  143.5179  159.5258 C.ar    1  UNL1        0.1032
     16 C         142.6882  142.0194  159.5606 C.ar    1  UNL1        0.0735
     17 N         142.9885  138.2488  158.3593 N.3     1  UNL1       -0.2035
     18 S         142.9341  139.7475  158.3245 S.O2    1  UNL1        0.0573
     19 O         144.4283  139.8044  158.4437 O.2     1  UNL1       -0.1532
     20 O         141.4400  139.6905  158.2052 O.2     1  UNL1       -0.1532
     21 H         142.0430  137.8725  158.2908 H       1  UNL1        0.1442
     22 H         143.4130  137.9443  159.2354 H       1  UNL1        0.1442
     23 C         140.7781  138.7683  165.3080 C.ar    1  UNL1        0.0001
     24 C         140.0811  137.5331  164.8199 C.ar    1  UNL1        0.0000
     25 C         138.7198  137.1833  165.3441 C.ar    1  UNL1        0.0000
     26 C         138.0557  138.0688  166.3565 C.ar    1  UNL1        0.0000
     27 C         138.7528  139.3041  166.8445 C.ar    1  UNL1        0.0000
     28 C         140.1140  139.6538  166.3203 C.ar    1  UNL1        0.0000
     29 N         139.6914  139.8692  163.2207 N.pl3   1  UNL1       -0.3131
     30 H         139.5407  139.0002  163.6581 H       1  UNL1        0.1485
     31 C         138.5597  140.8435  163.0784 C.3     1  UNL1        0.1348
     32 C         138.7325  142.2644  163.5269 C.ar    1  UNL1        0.0788
     33 C         139.1076  142.5618  164.9484 C.ar    1  UNL1        0.0165
     34 C         139.2804  143.9827  165.3969 C.ar    1  UNL1        0.0029
     35 C         139.0781  145.1062  164.4239 C.ar    1  UNL1        0.0207
     36 C         138.7030  144.8088  163.0023 C.ar    1  UNL1        0.0985
     37 N         138.5302  143.3879  162.5538 N.ar    1  UNL1       -0.2464
@<TRIPOS>BOND
     1    17    18    1
     2    18    19    2
     3    18    20    2
     4    18    11    1
     5    11    12   ar
     6    12    13   ar
     7    13    14   ar
     8    14    15   ar
     9    15    16   ar
    10    16     1    1
    11     1     2   ar
    12     2     3   ar
    13     3    29    1
    14    29    31    1
    15    31    32    1
    16    32    33   ar
    17    33    34   ar
    18    34    35   ar
    19    35    36   ar
    20    36    37   ar
    21     3     4   ar
    22     4     5   ar
    23     5    23    1
    24    23    24   ar
    25    24    25   ar
    26    25    26   ar
    27    26    27   ar
    28    27    28   ar
    29     5     6   ar
    30     6     7   ar
    31     7     8   ar
    32     8     9   ar
    33     9    10   ar
    34    16    11   ar
    35    10     1   ar
    36    37    32   ar
    37     9     4   ar
    38    28    23   ar
    39    17    21    1
    40    17    22    1
    41    29    30    1
@<TRIPOS>MOLECULE
*****
 37 41 0 0 0
SMALL
GASTEIGER

@<TRIPOS>ATOM
      1 C         141.4218  142.4462  167.0957 C.ar    1  UNL1        0.1664
      2 N         140.3502  142.4194  166.0463 N.ar    1  UNL1       -0.2120
      3 C         140.7227  142.4380  164.5934 C.ar    1  UNL1        0.1318
      4 C         142.1668  142.4834  164.1899 C.ar    1  UNL1        0.0491
      5 C         142.5393  142.5019  162.7370 C.ar    1  UNL1        0.0041
      6 C         143.9832  142.5473  162.3335 C.ar    1  UNL1        0.0002
      7 C         145.0547  142.5742  163.3828 C.ar    1  UNL1        0.0015
      8 C         144.6822  142.5556  164.8357 C.ar    1  UNL1        0.0192
      9 C         143.2382  142.5102  165.2392 C.ar    1  UNL1        0.0856
     10 N         142.8657  142.4916  166.6921 N.ar    1  UNL1       -0.2264
     11 C         141.4334  141.2586  169.4064 C.ar    1  UNL1        0.1277
     12 C         141.0609  141.2400  170.8593 C.ar    1  UNL1        0.0407
     13 C         140.3042  142.3905  171.4543 C.ar    1  UNL1        0.1003
     14 N         139.9202  143.5594  170.5965 N.ar    1  UNL1       -0.2421
     15 C         140.2927  143.5780  169.1436 C.ar    1  UNL1        0.1032
     16 C         141.0492  142.4276  168.5485 C.ar    1  UNL1        0.0735
     17 N         142.9465  138.9577  168.2163 N.3     1  UNL1       -0.2035
     18 S         142.1900  140.1082  168.8114 S.O2    1  UNL1        0.0573
     19 O         140.9429  139.6472  168.1169 O.2     1  UNL1       -0.1532
     20 O         143.4370  140.5691  169.5058 O.2     1  UNL1       -0.1532
     21 H         143.9176  138.9925  168.5266 H       1  UNL1        0.1442
     22 H         142.9124  139.0184  167.1986 H       1  UNL1        0.1442
     23 C         141.4677  142.4751  161.6876 C.ar    1  UNL1        0.0001
     24 C         140.8620  143.7583  161.2013 C.ar    1  UNL1        0.0000
     25 C         139.7904  143.7314  160.1519 C.ar    1  UNL1        0.0000
     26 C         139.3247  142.4214  159.5889 C.ar    1  UNL1        0.0000
     27 C         139.9305  141.1382  160.0752 C.ar    1  UNL1        0.0000
     28 C         141.0020  141.1651  161.1246 C.ar    1  UNL1        0.0000
     29 N         139.6513  142.4111  163.5440 N.pl3   1  UNL1       -0.3131
     30 H         139.7665  142.9209  162.7097 H       1  UNL1        0.1485
     31 C         138.4042  141.6076  163.7658 C.3     1  UNL1        0.1348
     32 C         138.4998  140.1985  164.2710 C.ar    1  UNL1        0.0788
     33 C         139.0083  139.1118  163.3707 C.ar    1  UNL1        0.0165
     34 C         139.1040  137.7027  163.8760 C.ar    1  UNL1        0.0029
     35 C         138.6912  137.3803  165.2816 C.ar    1  UNL1        0.0207
     36 C         138.1827  138.4670  166.1819 C.ar    1  UNL1        0.0985
     37 N         138.0871  139.8761  165.6766 N.ar    1  UNL1       -0.2464
@<TRIPOS>BOND
     1    17    18    1
     2    18    19    2
     3    18    20    2
     4    18    11    1
     5    11    12   ar
     6    12    13   ar
     7    13    14   ar
     8    14    15   ar
     9    15    16   ar
    10    16     1    1
    11     1     2   ar
    12     2     3   ar
    13     3    29    1
    14    29    31    1
    15    31    32    1
    16    32    33   ar
    17    33    34   ar
    18    34    35   ar
    19    35    36   ar
    20    36    37   ar
    21     3     4   ar
    22     4     5   ar
    23     5    23    1
    24    23    24   ar
    25    24    25   ar
    26    25    26   ar
    27    26    27   ar
    28    27    28   ar
    29     5     6   ar
    30     6     7   ar
    31     7     8   ar
    32     8     9   ar
    33     9    10   ar
    34    16    11   ar
    35    10     1   ar
    36    37    32   ar
    37     9     4   ar
    38    28    23   ar
    39    17    21    1
    40    17    22    1
    41    29    30    1
@<TRIPOS>MOLECULE
*****
 37 41 0 0 0
SMALL
GASTEIGER

@<TRIPOS>ATOM
      1 C         141.2526  140.1495  161.7621 C.ar    1  UNL1        0.1664
      2 N         141.9266  141.0374  162.7659 N.ar    1  UNL1       -0.2120
      3 C         141.5749  140.9275  164.2199 C.ar    1  UNL1        0.1318
      4 C         140.5493  139.9297  164.6702 C.ar    1  UNL1        0.0491
      5 C         140.1977  139.8198  166.1242 C.ar    1  UNL1        0.0041
      6 C         139.1722  138.8220  166.5745 C.ar    1  UNL1        0.0002
      7 C         138.4983  137.9342  165.5707 C.ar    1  UNL1        0.0015
      8 C         138.8499  138.0442  164.1167 C.ar    1  UNL1        0.0192
      9 C         139.8754  139.0419  163.6664 C.ar    1  UNL1        0.0856
     10 N         140.2271  139.1518  162.2123 N.ar    1  UNL1       -0.2264
     11 C         142.7920  139.5210  159.7657 C.ar    1  UNL1        0.1277
     12 C         143.1437  139.6310  158.3117 C.ar    1  UNL1        0.0407
     13 C         142.3075  140.4793  157.3999 C.ar    1  UNL1        0.1003
     14 N         141.1198  141.2177  157.9422 N.ar    1  UNL1       -0.2421
     15 C         140.7682  141.1078  159.3963 C.ar    1  UNL1        0.1032
     16 C         141.6042  140.2595  160.3080 C.ar    1  UNL1        0.0735
     17 N         144.4642  137.8244  161.5893 N.3     1  UNL1       -0.2035
     18 S         143.6281  138.6727  160.6775 S.O2    1  UNL1        0.0573
     19 O         144.4727  139.8660  161.0132 O.2     1  UNL1       -0.1532
     20 O         142.7835  137.4795  160.3417 O.2     1  UNL1       -0.1532
     21 H         144.1123  136.8671  161.5807 H       1  UNL1        0.1442
     22 H         144.4163  138.1958  162.5381 H       1  UNL1        0.1442
     23 C         140.8716  140.7076  167.1280 C.ar    1  UNL1        0.0001
     24 C         140.2248  141.9955  167.5440 C.ar    1  UNL1        0.0000
     25 C         140.8988  142.8833  168.5478 C.ar    1  UNL1        0.0000
     26 C         142.2195  142.4833  169.1356 C.ar    1  UNL1        0.0000
     27 C         142.8664  141.1954  168.7196 C.ar    1  UNL1        0.0000
     28 C         142.1924  140.3076  167.7159 C.ar    1  UNL1        0.0000
     29 N         142.2488  141.8153  165.2237 N.pl3   1  UNL1       -0.3131
     30 H         142.5737  141.4394  166.0736 H       1  UNL1        0.1485
     31 C         142.4276  143.2759  164.9326 C.3     1  UNL1        0.1348
     32 C         141.3852  144.0177  164.1497 C.ar    1  UNL1        0.0788
     33 C         139.9938  144.1527  164.6933 C.ar    1  UNL1        0.0165
     34 C         138.9513  144.8945  163.9104 C.ar    1  UNL1        0.0029
     35 C         139.3003  145.5014  162.5838 C.ar    1  UNL1        0.0207
     36 C         140.6918  145.3665  162.0402 C.ar    1  UNL1        0.0985
     37 N         141.7342  144.6247  162.8231 N.ar    1  UNL1       -0.2464
@<TRIPOS>BOND
     1    17    18    1
     2    18    19    2
     3    18    20    2
     4    18    11    1
     5    11    12   ar
     6    12    13   ar
     7    13    14   ar
     8    14    15   ar
     9    15    16   ar
    10    16     1    1
    11     1     2   ar
    12     2     3   ar
    13     3    29    1
    14    29    31    1
    15    31    32    1
    16    32    33   ar
    17    33    34   ar
    18    34    35   ar
    19    35    36   ar
    20    36    37   ar
    21     3     4   ar
    22     4     5   ar
    23     5    23    1
    24    23    24   ar
    25    24    25   ar
    26    25    26   ar
    27    26    27   ar
    28    27    28   ar
    29     5     6   ar
    30     6     7   ar
    31     7     8   ar
    32     8     9   ar
    33     9    10   ar
    34    16    11   ar
    35    10     1   ar
    36    37    32   ar
    37     9     4   ar
    38    28    23   ar
    39    17    21    1
    40    17    22    1
    41    29    30    1
