@<TRIPOS>MOLECULE
*****
 30 33 0 0 0
SMALL
GASTEIGER

@<TRIPOS>ATOM
      1 N         138.5133  140.3844  163.8031 N.3     1  UNL1       -0.2679
      2 C         138.7725  141.8353  164.0819 C.3     1  UNL1        0.0978
      3 C         137.6434  142.7335  164.4922 C.3     1  UNL1        0.0224
      4 C         137.9026  144.1844  164.7709 C.3     1  UNL1        0.0065
      5 C         139.2908  144.7371  164.6394 C.3     1  UNL1        0.0277
      6 C         140.4198  143.8389  164.2291 C.ar    1  UNL1       -0.0073
      7 C         141.8081  144.3916  164.0976 C.ar    1  UNL1       -0.0015
      8 C         142.9372  143.4934  163.6873 C.ar    1  UNL1        0.0203
      9 C         142.6781  142.0425  163.4085 C.ar    1  UNL1        0.0985
     10 N         141.2898  141.4898  163.5400 N.ar    1  UNL1       -0.2471
     11 C         140.1607  142.3880  163.9504 C.ar    1  UNL1        0.0695
     12 C         138.1726  139.9370  162.4125 C.3     1  UNL1        0.0725
     13 C         138.2966  138.4896  162.0388 C.3     1  UNL1        0.0187
     14 C         139.5296  137.9983  161.3401 C.3     1  UNL1        0.0183
     15 N         141.1173  136.9323  163.0987 N.3     1  UNL1       -0.3211
     16 C         140.8443  137.9815  162.0620 C.3     1  UNL1        0.0652
     17 H         142.0514  137.0703  163.4844 H       1  UNL1        0.1189
     18 H         141.0593  136.0082  162.6708 H       1  UNL1        0.1189
     19 C         138.5949  139.3808  164.9149 C.3     1  UNL1        0.0886
     20 C         139.6781  139.4909  165.9467 C.3     1  UNL1        0.0749
     21 C         139.3449  139.9377  167.3393 C.3     1  UNL1        0.0447
     22 C         140.4281  140.0478  168.3711 C.ar    1  UNL1       -0.0058
     23 C         140.0949  140.4945  169.7636 C.ar    1  UNL1       -0.0014
     24 C         141.1781  140.6046  170.7953 C.ar    1  UNL1        0.0203
     25 C         142.5946  140.2678  170.4345 C.ar    1  UNL1        0.0985
     26 N         142.9278  139.8211  169.0419 N.ar    1  UNL1       -0.2471
     27 C         141.8446  139.7110  168.0102 C.ar    1  UNL1        0.0710
     28 C         142.1778  139.2642  166.6176 C.3     1  UNL1        0.1148
     29 N         141.0946  139.1541  165.5859 N.3     1  UNL1       -0.2921
     30 H         141.0939  138.1870  165.2617 H       1  UNL1        0.1236
@<TRIPOS>BOND
     1    15    16    1
     2    16    14    1
     3    14    13    1
     4    13    12    1
     5    12     1    1
     6     1    19    1
     7    20    19    1
     8    20    21    1
     9    21    22    1
    10    22    23   ar
    11    23    24   ar
    12    24    25   ar
    13    25    26   ar
    14    26    27   ar
    15    27    28    1
    16    28    29    1
    17     2     1    1
    18     2     3    1
    19     3     4    1
    20     4     5    1
    21     5     6    1
    22     6     7   ar
    23     7     8   ar
    24     8     9   ar
    25     9    10   ar
    26    10    11   ar
    27    29    20    1
    28    11     2    1
    29    27    22   ar
    30    11     6   ar
    31    15    17    1
    32    15    18    1
    33    29    30    1
@<TRIPOS>MOLECULE
*****
 30 33 0 0 0
SMALL
GASTEIGER

@<TRIPOS>ATOM
      1 N         141.1278  140.6970  167.6118 N.3     1  UNL1       -0.2679
      2 C         140.2532  139.7321  166.8675 C.3     1  UNL1        0.0978
      3 C         138.8636  139.4488  167.3561 C.3     1  UNL1        0.0224
      4 C         137.9890  138.4839  166.6118 C.3     1  UNL1        0.0065
      5 C         138.5041  137.8021  165.3790 C.3     1  UNL1        0.0277
      6 C         139.8937  138.0853  164.8904 C.ar    1  UNL1       -0.0073
      7 C         140.4088  137.4035  163.6575 C.ar    1  UNL1       -0.0015
      8 C         141.7984  137.6868  163.1690 C.ar    1  UNL1        0.0203
      9 C         142.6729  138.6517  163.9132 C.ar    1  UNL1        0.0985
     10 N         142.1579  139.3335  165.1461 N.ar    1  UNL1       -0.2471
     11 C         140.7682  139.0503  165.6347 C.ar    1  UNL1        0.0695
     12 C         142.1477  140.1870  168.5862 C.3     1  UNL1        0.0725
     13 C         141.7067  139.5873  169.8885 C.3     1  UNL1        0.0187
     14 C         140.6128  140.2385  170.6818 C.3     1  UNL1        0.0183
     15 N         142.0604  142.1027  171.7678 N.3     1  UNL1       -0.3211
     16 C         140.7683  141.6545  171.1517 C.3     1  UNL1        0.0652
     17 H         141.9901  143.0866  172.0273 H       1  UNL1        0.1189
     18 H         142.8177  141.9818  171.0953 H       1  UNL1        0.1189
     19 C         140.9824  142.1721  167.3816 C.3     1  UNL1        0.0886
     20 C         141.1877  142.7409  166.0088 C.3     1  UNL1        0.0749
     21 C         140.1400  143.6239  165.3985 C.3     1  UNL1        0.0447
     22 C         140.3453  144.1926  164.0257 C.ar    1  UNL1       -0.0058
     23 C         139.2976  145.0757  163.4154 C.ar    1  UNL1       -0.0014
     24 C         139.5029  145.6444  162.0427 C.ar    1  UNL1        0.0203
     25 C         140.7559  145.3300  161.2803 C.ar    1  UNL1        0.0985
     26 N         141.8036  144.4470  161.8906 N.ar    1  UNL1       -0.2471
     27 C         141.5983  143.8783  163.2633 C.ar    1  UNL1        0.0710
     28 C         142.6460  142.9952  163.8737 C.3     1  UNL1        0.1148
     29 N         142.4407  142.4265  165.2465 N.3     1  UNL1       -0.2921
     30 H         143.2218  142.7480  165.8182 H       1  UNL1        0.1236
@<TRIPOS>BOND
     1    15    16    1
     2    16    14    1
     3    14    13    1
     4    13    12    1
     5    12     1    1
     6     1    19    1
     7    20    19    1
     8    20    21    1
     9    21    22    1
    10    22    23   ar
    11    23    24   ar
    12    24    25   ar
    13    25    26   ar
    14    26    27   ar
    15    27    28    1
    16    28    29    1
    17     2     1    1
    18     2     3    1
    19     3     4    1
    20     4     5    1
    21     5     6    1
    22     6     7   ar
    23     7     8   ar
    24     8     9   ar
    25     9    10   ar
    26    10    11   ar
    27    29    20    1
    28    11     2    1
    29    27    22   ar
    30    11     6   ar
    31    15    17    1
    32    15    18    1
    33    29    30    1
@<TRIPOS>MOLECULE
*****
 30 33 0 0 0
SMALL
GASTEIGER

@<TRIPOS>ATOM
      1 N         141.8733  140.4907  163.4278 N.3     1  UNL1       -0.2679
      2 C         141.8028  141.9846  163.5437 C.3     1  UNL1        0.0978
      3 C         143.0271  142.8147  163.2955 C.3     1  UNL1        0.0224
      4 C         142.9566  144.3086  163.4113 C.3     1  UNL1        0.0065
      5 C         141.6616  144.9723  163.7754 C.3     1  UNL1        0.0277
      6 C         140.4372  144.1421  164.0236 C.ar    1  UNL1       -0.0073
      7 C         139.1422  144.8058  164.3876 C.ar    1  UNL1       -0.0015
      8 C         137.9178  143.9756  164.6358 C.ar    1  UNL1        0.0203
      9 C         137.9884  142.4817  164.5200 C.ar    1  UNL1        0.0985
     10 N         139.2833  141.8181  164.1559 N.ar    1  UNL1       -0.2471
     11 C         140.5078  142.6482  163.9077 C.ar    1  UNL1        0.0695
     12 C         141.5820  139.8257  162.1153 C.3     1  UNL1        0.0725
     13 C         141.1968  138.3764  162.0780 C.3     1  UNL1        0.0187
     14 C         139.7487  137.9852  162.0722 C.3     1  UNL1        0.0183
     15 N         138.6237  138.8547  164.2468 N.3     1  UNL1       -0.3211
     16 C         139.0401  137.7139  163.3661 C.3     1  UNL1        0.0652
     17 H         138.1588  138.4902  165.0783 H       1  UNL1        0.1189
     18 H         137.9817  139.4612  163.7366 H       1  UNL1        0.1189
     19 C         142.2352  139.6619  164.6245 C.3     1  UNL1        0.0886
     20 C         141.8103  140.0983  165.9953 C.3     1  UNL1        0.0749
     21 C         142.7233  140.9481  166.8285 C.3     1  UNL1        0.0447
     22 C         142.2984  141.3845  168.1993 C.ar    1  UNL1       -0.0058
     23 C         143.2114  142.2343  169.0324 C.ar    1  UNL1       -0.0014
     24 C         142.7865  142.6707  170.4032 C.ar    1  UNL1        0.0203
     25 C         141.4486  142.2572  170.9408 C.ar    1  UNL1        0.0985
     26 N         140.5356  141.4074  170.1077 N.ar    1  UNL1       -0.2471
     27 C         140.9605  140.9710  168.7369 C.ar    1  UNL1        0.0710
     28 C         140.0475  140.1212  167.9037 C.3     1  UNL1        0.1148
     29 N         140.4724  139.6848  166.5329 N.3     1  UNL1       -0.2921
     30 H         139.7714  140.0374  165.8812 H       1  UNL1        0.1236
@<TRIPOS>BOND
     1    15    16    1
     2    16    14    1
     3    14    13    1
     4    13    12    1
     5    12     1    1
     6     1    19    1
     7    20    19    1
     8    20    21    1
     9    21    22    1
    10    22    23   ar
    11    23    24   ar
    12    24    25   ar
    13    25    26   ar
    14    26    27   ar
    15    27    28    1
    16    28    29    1
    17     2     1    1
    18     2     3    1
    19     3     4    1
    20     4     5    1
    21     5     6    1
    22     6     7   ar
    23     7     8   ar
    24     8     9   ar
    25     9    10   ar
    26    10    11   ar
    27    29    20    1
    28    11     2    1
    29    27    22   ar
    30    11     6   ar
    31    15    17    1
    32    15    18    1
    33    29    30    1
@<TRIPOS>MOLECULE
*****
 30 33 0 0 0
SMALL
GASTEIGER

@<TRIPOS>ATOM
      1 N         141.2610  142.1426  167.6721 N.3     1  UNL1       -0.2679
      2 C         140.1925  141.4778  166.8559 C.3     1  UNL1        0.0978
      3 C         139.8370  140.0431  167.1116 C.3     1  UNL1        0.0224
      4 C         138.7684  139.3783  166.2954 C.3     1  UNL1        0.0065
      5 C         138.0554  140.1480  165.2235 C.3     1  UNL1        0.0277
      6 C         138.4109  141.5827  164.9678 C.ar    1  UNL1       -0.0073
      7 C         137.6979  142.3525  163.8959 C.ar    1  UNL1       -0.0015
      8 C         138.0534  143.7871  163.6402 C.ar    1  UNL1        0.0203
      9 C         139.1219  144.4520  164.4564 C.ar    1  UNL1        0.0985
     10 N         139.8349  143.6822  165.5283 N.ar    1  UNL1       -0.2471
     11 C         139.4794  142.2475  165.7840 C.ar    1  UNL1        0.0695
     12 C         140.9057  142.8249  168.9598 C.3     1  UNL1        0.0725
     13 C         141.8307  142.7336  170.1371 C.3     1  UNL1        0.0187
     14 C         141.7054  141.5924  171.1026 C.3     1  UNL1        0.0183
     15 N         139.8953  139.7287  171.1143 N.3     1  UNL1       -0.3211
     16 C         141.2113  140.2585  170.6269 C.3     1  UNL1        0.0652
     17 H         139.7184  138.8171  170.6922 H       1  UNL1        0.1189
     18 H         139.1507  140.3748  170.8526 H       1  UNL1        0.1189
     19 C         142.6848  142.1251  167.2007 C.3     1  UNL1        0.0886
     20 C         142.9935  141.8640  165.7561 C.3     1  UNL1        0.0749
     21 C         143.1955  140.4579  165.2746 C.3     1  UNL1        0.0447
     22 C         143.5041  140.1967  163.8301 C.ar    1  UNL1       -0.0058
     23 C         143.7061  138.7906  163.3486 C.ar    1  UNL1       -0.0014
     24 C         144.0147  138.5295  161.9041 C.ar    1  UNL1        0.0203
     25 C         144.1213  139.6746  160.9411 C.ar    1  UNL1        0.0985
     26 N         143.9193  141.0808  161.4226 N.ar    1  UNL1       -0.2471
     27 C         143.6107  141.3418  162.8671 C.ar    1  UNL1        0.0710
     28 C         143.4087  142.7481  163.3486 C.3     1  UNL1        0.1148
     29 N         143.1001  143.0091  164.7931 N.3     1  UNL1       -0.2921
     30 H         142.2063  143.5000  164.8192 H       1  UNL1        0.1236
@<TRIPOS>BOND
     1    15    16    1
     2    16    14    1
     3    14    13    1
     4    13    12    1
     5    12     1    1
     6     1    19    1
     7    20    19    1
     8    20    21    1
     9    21    22    1
    10    22    23   ar
    11    23    24   ar
    12    24    25   ar
    13    25    26   ar
    14    26    27   ar
    15    27    28    1
    16    28    29    1
    17     2     1    1
    18     2     3    1
    19     3     4    1
    20     4     5    1
    21     5     6    1
    22     6     7   ar
    23     7     8   ar
    24     8     9   ar
    25     9    10   ar
    26    10    11   ar
    27    29    20    1
    28    11     2    1
    29    27    22   ar
    30    11     6   ar
    31    15    17    1
    32    15    18    1
    33    29    30    1
@<TRIPOS>MOLECULE
*****
 30 33 0 0 0
SMALL
GASTEIGER

@<TRIPOS>ATOM
      1 N         139.1804  139.0559  165.3876 N.3     1  UNL1       -0.2679
      2 C         140.4148  139.2831  166.2090 C.3     1  UNL1        0.0978
      3 C         141.7694  139.1647  165.5758 C.3     1  UNL1        0.0224
      4 C         143.0038  139.3918  166.3972 C.3     1  UNL1        0.0065
      5 C         142.8835  139.7374  167.8518 C.3     1  UNL1        0.0277
      6 C         141.5290  139.8558  168.4851 C.ar    1  UNL1       -0.0073
      7 C         141.4087  140.2015  169.9398 C.ar    1  UNL1       -0.0015
      8 C         140.0541  140.3199  170.5730 C.ar    1  UNL1        0.0203
      9 C         138.8197  140.0927  169.7516 C.ar    1  UNL1        0.0985
     10 N         138.9400  139.7471  168.2970 N.ar    1  UNL1       -0.2471
     11 C         140.2946  139.6287  167.6636 C.ar    1  UNL1        0.0695
     12 C         138.9851  137.7521  164.6721 C.3     1  UNL1        0.0725
     13 C         138.7049  137.7398  163.1985 C.3     1  UNL1        0.0187
     14 C         139.5302  138.5817  162.2711 C.3     1  UNL1        0.0183
     15 N         141.5968  137.0077  162.3145 N.3     1  UNL1       -0.3211
     16 C         141.0158  138.3861  162.2027 C.3     1  UNL1        0.0652
     17 H         142.6132  137.0607  162.2478 H       1  UNL1        0.1189
     18 H         141.2364  136.4245  161.5592 H       1  UNL1        0.1189
     19 C         138.1414  140.1325  165.2816 C.3     1  UNL1        0.0886
     20 C         138.3903  141.3325  164.4165 C.3     1  UNL1        0.0749
     21 C         139.5583  142.2306  164.6977 C.3     1  UNL1        0.0447
     22 C         139.8071  143.4305  163.8326 C.ar    1  UNL1       -0.0058
     23 C         140.9751  144.3286  164.1138 C.ar    1  UNL1       -0.0014
     24 C         141.2239  145.5285  163.2488 C.ar    1  UNL1        0.0203
     25 C         140.3047  145.8302  162.1025 C.ar    1  UNL1        0.0985
     26 N         139.1367  144.9321  161.8213 N.ar    1  UNL1       -0.2471
     27 C         138.8879  143.7323  162.6863 C.ar    1  UNL1        0.0710
     28 C         137.7198  142.8341  162.4052 C.3     1  UNL1        0.1148
     29 N         137.4710  141.6342  163.2702 N.3     1  UNL1       -0.2921
     30 H         137.4887  140.8199  162.6563 H       1  UNL1        0.1236
@<TRIPOS>BOND
     1    15    16    1
     2    16    14    1
     3    14    13    1
     4    13    12    1
     5    12     1    1
     6     1    19    1
     7    20    19    1
     8    20    21    1
     9    21    22    1
    10    22    23   ar
    11    23    24   ar
    12    24    25   ar
    13    25    26   ar
    14    26    27   ar
    15    27    28    1
    16    28    29    1
    17     2     1    1
    18     2     3    1
    19     3     4    1
    20     4     5    1
    21     5     6    1
    22     6     7   ar
    23     7     8   ar
    24     8     9   ar
    25     9    10   ar
    26    10    11   ar
    27    29    20    1
    28    11     2    1
    29    27    22   ar
    30    11     6   ar
    31    15    17    1
    32    15    18    1
    33    29    30    1
@<TRIPOS>MOLECULE
*****
 30 33 0 0 0
SMALL
GASTEIGER

@<TRIPOS>ATOM
      1 N         140.8726  139.9362  167.4249 N.3     1  UNL1       -0.2679
      2 C         139.9627  139.9481  166.2325 C.3     1  UNL1        0.0978
      3 C         139.5520  138.6566  165.5895 C.3     1  UNL1        0.0224
      4 C         138.6421  138.6685  164.3971 C.3     1  UNL1        0.0065
      5 C         138.1428  139.9718  163.8476 C.3     1  UNL1        0.0277
      6 C         138.5535  141.2633  164.4906 C.ar    1  UNL1       -0.0073
      7 C         138.0542  142.5667  163.9411 C.ar    1  UNL1       -0.0015
      8 C         138.4648  143.8582  164.5840 C.ar    1  UNL1        0.0203
      9 C         139.3748  143.8463  165.7765 C.ar    1  UNL1        0.0985
     10 N         139.8741  142.5430  166.3259 N.ar    1  UNL1       -0.2471
     11 C         139.4634  141.2514  165.6830 C.ar    1  UNL1        0.0695
     12 C         140.3071  140.1221  168.8017 C.3     1  UNL1        0.0725
     13 C         140.9040  141.1415  169.7263 C.3     1  UNL1        0.0187
     14 C         140.1120  142.3537  170.1178 C.3     1  UNL1        0.0183
     15 N         139.9252  144.9359  170.3358 N.3     1  UNL1       -0.3211
     16 C         140.6396  143.7245  169.8139 C.3     1  UNL1        0.0652
     17 H         140.4182  145.7769  170.0360 H       1  UNL1        0.1189
     18 H         139.8988  144.9023  171.3549 H       1  UNL1        0.1189
     19 C         142.3480  139.7384  167.2405 C.3     1  UNL1        0.0886
     20 C         142.9888  140.0587  165.9226 C.3     1  UNL1        0.0749
     21 C         143.1170  141.4855  165.4781 C.3     1  UNL1        0.0447
     22 C         143.7578  141.8058  164.1601 C.ar    1  UNL1       -0.0058
     23 C         143.8860  143.2326  163.7156 C.ar    1  UNL1       -0.0014
     24 C         144.5267  143.5529  162.3977 C.ar    1  UNL1        0.0203
     25 C         145.0393  142.4463  161.5244 C.ar    1  UNL1        0.0985
     26 N         144.9110  141.0194  161.9689 N.ar    1  UNL1       -0.2471
     27 C         144.2703  140.6992  163.2868 C.ar    1  UNL1        0.0710
     28 C         144.1420  139.2723  163.7313 C.3     1  UNL1        0.1148
     29 N         143.5013  138.9521  165.0492 N.3     1  UNL1       -0.2921
     30 H         144.1938  138.4414  165.5970 H       1  UNL1        0.1236
@<TRIPOS>BOND
     1    15    16    1
     2    16    14    1
     3    14    13    1
     4    13    12    1
     5    12     1    1
     6     1    19    1
     7    20    19    1
     8    20    21    1
     9    21    22    1
    10    22    23   ar
    11    23    24   ar
    12    24    25   ar
    13    25    26   ar
    14    26    27   ar
    15    27    28    1
    16    28    29    1
    17     2     1    1
    18     2     3    1
    19     3     4    1
    20     4     5    1
    21     5     6    1
    22     6     7   ar
    23     7     8   ar
    24     8     9   ar
    25     9    10   ar
    26    10    11   ar
    27    29    20    1
    28    11     2    1
    29    27    22   ar
    30    11     6   ar
    31    15    17    1
    32    15    18    1
    33    29    30    1
@<TRIPOS>MOLECULE
*****
 30 33 0 0 0
SMALL
GASTEIGER

@<TRIPOS>ATOM
      1 N         142.2750  140.7422  167.2825 N.3     1  UNL1       -0.2679
      2 C         141.7219  141.8608  166.4502 C.3     1  UNL1        0.0978
      3 C         140.3275  142.3574  166.6928 C.3     1  UNL1        0.0224
      4 C         139.7743  143.4760  165.8605 C.3     1  UNL1        0.0065
      5 C         140.6155  144.0980  164.7856 C.3     1  UNL1        0.0277
      6 C         142.0099  143.6013  164.5429 C.ar    1  UNL1       -0.0073
      7 C         142.8512  144.2232  163.4680 C.ar    1  UNL1       -0.0015
      8 C         144.2456  143.7265  163.2253 C.ar    1  UNL1        0.0203
      9 C         144.7988  142.6079  164.0577 C.ar    1  UNL1        0.0985
     10 N         143.9576  141.9860  165.1326 N.ar    1  UNL1       -0.2471
     11 C         142.5631  142.4827  165.3753 C.ar    1  UNL1        0.0695
     12 C         142.9279  141.0395  168.5998 C.3     1  UNL1        0.0725
     13 C         142.9818  142.4494  169.1089 C.3     1  UNL1        0.0187
     14 C         141.9861  142.9172  170.1286 C.3     1  UNL1        0.0183
     15 N         142.0512  141.0316  171.9148 N.3     1  UNL1       -0.3211
     16 C         141.2713  141.9198  170.9913 C.3     1  UNL1        0.0652
     17 H         141.4101  140.4206  172.4209 H       1  UNL1        0.1189
     18 H         142.5708  141.6048  172.5796 H       1  UNL1        0.1189
     19 C         142.1753  139.3263  166.7975 C.3     1  UNL1        0.0886
     20 C         141.8046  139.0464  165.3712 C.3     1  UNL1        0.0749
     21 C         140.3623  138.9010  164.9859 C.3     1  UNL1        0.0447
     22 C         139.9915  138.6211  163.5596 C.ar    1  UNL1       -0.0058
     23 C         138.5492  138.4758  163.1742 C.ar    1  UNL1       -0.0014
     24 C         138.1785  138.1959  161.7480 C.ar    1  UNL1        0.0203
     25 C         139.2501  138.0613  160.7071 C.ar    1  UNL1        0.0985
     26 N         140.6925  138.2066  161.0924 N.ar    1  UNL1       -0.2471
     27 C         141.0631  138.4865  162.5187 C.ar    1  UNL1        0.0710
     28 C         142.5055  138.6319  162.9041 C.3     1  UNL1        0.1148
     29 N         142.8762  138.9118  164.3303 N.3     1  UNL1       -0.2921
     30 H         143.4000  139.7870  164.3321 H       1  UNL1        0.1236
@<TRIPOS>BOND
     1    15    16    1
     2    16    14    1
     3    14    13    1
     4    13    12    1
     5    12     1    1
     6     1    19    1
     7    20    19    1
     8    20    21    1
     9    21    22    1
    10    22    23   ar
    11    23    24   ar
    12    24    25   ar
    13    25    26   ar
    14    26    27   ar
    15    27    28    1
    16    28    29    1
    17     2     1    1
    18     2     3    1
    19     3     4    1
    20     4     5    1
    21     5     6    1
    22     6     7   ar
    23     7     8   ar
    24     8     9   ar
    25     9    10   ar
    26    10    11   ar
    27    29    20    1
    28    11     2    1
    29    27    22   ar
    30    11     6   ar
    31    15    17    1
    32    15    18    1
    33    29    30    1
@<TRIPOS>MOLECULE
*****
 30 33 0 0 0
SMALL
GASTEIGER

@<TRIPOS>ATOM
      1 N         142.6271  141.4016  167.4437 N.3     1  UNL1       -0.2679
      2 C         142.6959  142.3585  166.2906 C.3     1  UNL1        0.0978
      3 C         144.0041  142.9902  165.9172 C.3     1  UNL1        0.0224
      4 C         144.0729  143.9471  164.7641 C.3     1  UNL1        0.0065
      5 C         142.8334  144.2725  163.9846 C.3     1  UNL1        0.0277
      6 C         141.5251  143.6409  164.3581 C.ar    1  UNL1       -0.0073
      7 C         140.2855  143.9663  163.5785 C.ar    1  UNL1       -0.0015
      8 C         138.9773  143.3346  163.9520 C.ar    1  UNL1        0.0203
      9 C         138.9086  142.3777  165.1050 C.ar    1  UNL1        0.0985
     10 N         140.1481  142.0523  165.8845 N.ar    1  UNL1       -0.2471
     11 C         141.4564  142.6839  165.5111 C.ar    1  UNL1        0.0695
     12 C         142.4434  141.9204  168.8390 C.3     1  UNL1        0.0725
     13 C         141.2085  142.6939  169.1951 C.3     1  UNL1        0.0187
     14 C         140.0268  141.9875  169.7905 C.3     1  UNL1        0.0183
     15 N         139.4425  140.1110  168.0912 N.3     1  UNL1       -0.3211
     16 C         139.7883  140.5380  169.4870 C.3     1  UNL1        0.0652
     17 H         139.3156  139.0992  168.0668 H       1  UNL1        0.1189
     18 H         140.1977  140.3743  167.4582 H       1  UNL1        0.1189
     19 C         142.7421  139.9258  167.2013 C.3     1  UNL1        0.0886
     20 C         142.3914  139.3566  165.8585 C.3     1  UNL1        0.0749
     21 C         143.4265  139.3000  164.7744 C.3     1  UNL1        0.0447
     22 C         143.0758  138.7309  163.4315 C.ar    1  UNL1       -0.0058
     23 C         144.1109  138.6743  162.3474 C.ar    1  UNL1       -0.0014
     24 C         143.7602  138.1052  161.0046 C.ar    1  UNL1        0.0203
     25 C         142.3744  137.5926  160.7460 C.ar    1  UNL1        0.0985
     26 N         141.3393  137.6493  161.8301 N.ar    1  UNL1       -0.2471
     27 C         141.6900  138.2184  163.1729 C.ar    1  UNL1        0.0710
     28 C         140.6549  138.2750  164.2571 C.3     1  UNL1        0.1148
     29 N         141.0056  138.8441  165.5998 N.3     1  UNL1       -0.2921
     30 H         140.8305  138.1098  166.2857 H       1  UNL1        0.1236
@<TRIPOS>BOND
     1    15    16    1
     2    16    14    1
     3    14    13    1
     4    13    12    1
     5    12     1    1
     6     1    19    1
     7    20    19    1
     8    20    21    1
     9    21    22    1
    10    22    23   ar
    11    23    24   ar
    12    24    25   ar
    13    25    26   ar
    14    26    27   ar
    15    27    28    1
    16    28    29    1
    17     2     1    1
    18     2     3    1
    19     3     4    1
    20     4     5    1
    21     5     6    1
    22     6     7   ar
    23     7     8   ar
    24     8     9   ar
    25     9    10   ar
    26    10    11   ar
    27    29    20    1
    28    11     2    1
    29    27    22   ar
    30    11     6   ar
    31    15    17    1
    32    15    18    1
    33    29    30    1
@<TRIPOS>MOLECULE
*****
 30 33 0 0 0
SMALL
GASTEIGER

@<TRIPOS>ATOM
      1 N         139.5894  140.1744  167.1681 N.3     1  UNL1       -0.2679
      2 C         140.5867  141.0335  166.4487 C.3     1  UNL1        0.0978
      3 C         140.2964  142.4869  166.2181 C.3     1  UNL1        0.0224
      4 C         141.2936  143.3460  165.4988 C.3     1  UNL1        0.0065
      5 C         142.5811  142.7517  165.0100 C.3     1  UNL1        0.0277
      6 C         142.8714  141.2982  165.2406 C.ar    1  UNL1       -0.0073
      7 C         144.1590  140.7038  164.7518 C.ar    1  UNL1       -0.0015
      8 C         144.4493  139.2504  164.9824 C.ar    1  UNL1        0.0203
      9 C         143.4521  138.3913  165.7018 C.ar    1  UNL1        0.0985
     10 N         142.1646  138.9856  166.1905 N.ar    1  UNL1       -0.2471
     11 C         141.8742  140.4391  165.9600 C.ar    1  UNL1        0.0695
     12 C         139.6888  139.9936  168.6538 C.3     1  UNL1        0.0725
     13 C         140.1244  141.1373  169.5211 C.3     1  UNL1        0.0187
     14 C         141.1699  140.9235  170.5752 C.3     1  UNL1        0.0183
     15 N         143.3854  139.6536  171.0539 N.3     1  UNL1       -0.3211
     16 C         142.5703  140.5599  170.1796 C.3     1  UNL1        0.0652
     17 H         144.3052  139.5145  170.6356 H       1  UNL1        0.1189
     18 H         142.9134  138.7538  171.1445 H       1  UNL1        0.1189
     19 C         138.4928  139.4961  166.4018 C.3     1  UNL1        0.0886
     20 C         138.3354  139.7524  164.9322 C.3     1  UNL1        0.0749
     21 C         138.9906  138.8408  163.9375 C.3     1  UNL1        0.0447
     22 C         138.8332  139.0970  162.4679 C.ar    1  UNL1       -0.0058
     23 C         139.4885  138.1854  161.4732 C.ar    1  UNL1       -0.0014
     24 C         139.3310  138.4417  160.0037 C.ar    1  UNL1        0.0203
     25 C         138.5183  139.6096  159.5289 C.ar    1  UNL1        0.0985
     26 N         137.8630  140.5213  160.5236 N.ar    1  UNL1       -0.2471
     27 C         138.0205  140.2650  161.9931 C.ar    1  UNL1        0.0710
     28 C         137.3652  141.1766  162.9879 C.3     1  UNL1        0.1148
     29 N         137.5227  140.9203  164.4574 N.3     1  UNL1       -0.2921
     30 H         136.5839  140.7998  164.8375 H       1  UNL1        0.1236
@<TRIPOS>BOND
     1    15    16    1
     2    16    14    1
     3    14    13    1
     4    13    12    1
     5    12     1    1
     6     1    19    1
     7    20    19    1
     8    20    21    1
     9    21    22    1
    10    22    23   ar
    11    23    24   ar
    12    24    25   ar
    13    25    26   ar
    14    26    27   ar
    15    27    28    1
    16    28    29    1
    17     2     1    1
    18     2     3    1
    19     3     4    1
    20     4     5    1
    21     5     6    1
    22     6     7   ar
    23     7     8   ar
    24     8     9   ar
    25     9    10   ar
    26    10    11   ar
    27    29    20    1
    28    11     2    1
    29    27    22   ar
    30    11     6   ar
    31    15    17    1
    32    15    18    1
    33    29    30    1
