@<TRIPOS>MOLECULE
*****
 34 37 0 0 0
SMALL
GASTEIGER

@<TRIPOS>ATOM
      1 C         140.9931  139.5973  165.9724 C.3     1  UNL1        0.0497
      2 C         141.4972  139.6593  164.5611 C.2     1  UNL1        0.0679
      3 N         142.5146  138.7438  163.9471 N.2     1  UNL1       -0.1536
      4 N         142.7186  139.1664  162.5224 N.2     1  UNL1       -0.1145
      5 C         141.8274  140.3431  162.2558 C.2     1  UNL1        0.2315
      6 C         141.0725  140.6477  163.5157 C.3     1  UNL1        0.1240
      7 C         140.0960  141.7857  163.5484 C.3     1  UNL1        0.0644
      8 C         139.8743  142.6192  162.3211 C.2     1  UNL1        0.0987
      9 C         140.6291  142.3146  161.0612 C.2     1  UNL1        0.2002
     10 N         140.4074  143.1480  159.8339 N.pl3   1  UNL1       -0.3284
     11 O         141.6056  141.1765  161.0285 O.2     1  UNL1       -0.4246
     12 H         139.7664  143.8950  159.8552 H       1  UNL1        0.1451
     13 H         140.9028  142.9480  159.0069 H       1  UNL1        0.1451
     14 C         139.9624  141.2875  164.9568 C.ar    1  UNL1       -0.0174
     15 C         140.7907  141.8960  166.0494 C.ar    1  UNL1       -0.0039
     16 C         140.6572  141.3977  167.4579 C.ar    1  UNL1        0.0011
     17 C         139.6954  140.2909  167.7739 C.ar    1  UNL1        0.0039
     18 C         138.8671  139.6823  166.6814 C.ar    1  UNL1        0.0711
     19 C         139.0007  140.1806  165.2728 C.ar    1  UNL1       -0.0001
     20 C         141.4855  142.0063  168.5504 C.ar    1  UNL1        0.0192
     21 C         142.9080  141.5716  168.7438 C.ar    1  UNL1        0.0031
     22 C         143.7363  142.1802  169.8364 C.ar    1  UNL1        0.0207
     23 C         143.1420  143.2235  170.7355 C.ar    1  UNL1        0.0989
     24 N         141.7195  143.6581  170.5420 N.ar    1  UNL1       -0.2423
     25 C         140.8912  143.0496  169.4495 C.ar    1  UNL1        0.0988
     26 C         137.9053  138.5755  166.9973 C.3     1  UNL1        0.4186
     27 F         136.9435  137.4686  167.3133 F       1  UNL1       -0.1659
     28 F         137.7062  139.1410  168.3722 F       1  UNL1       -0.1659
     29 F         138.1045  138.0100  165.6223 F       1  UNL1       -0.1659
     30 C         139.0730  142.7508  164.0701 C.3     1  UNL1        0.0091
     31 C         139.5106  144.0404  164.6991 C.3     1  UNL1        0.0007
     32 C         137.6125  142.4264  163.9630 C.3     1  UNL1        0.0007
     33 C         138.8976  143.7573  162.3537 C.1     1  UNL1        0.1008
     34 N         137.9211  144.8954  162.3864 N.1     1  UNL1       -0.1910
@<TRIPOS>BOND
     1     1     2    1
     2     2     3    2
     3     3     4    1
     4     4     5    2
     5     5     6    1
     6     6     7    1
     7     7    14    1
     8    14    15   ar
     9    15    16   ar
    10    16    20    1
    11    20    21   ar
    12    21    22   ar
    13    22    23   ar
    14    23    24   ar
    15    24    25   ar
    16    16    17   ar
    17    17    18   ar
    18    18    26    1
    19    26    27    1
    20    26    28    1
    21    26    29    1
    22    18    19   ar
    23     7    30    1
    24    30    31    1
    25    30    32    1
    26     7     8    1
    27     8    33    1
    28    33    34    3
    29     8     9    2
    30     9    10    1
    31     9    11    1
    32     6     2    1
    33    19    14   ar
    34    11     5    1
    35    25    20   ar
    36    10    12    1
    37    10    13    1
@<TRIPOS>MOLECULE
*****
 34 37 0 0 0
SMALL
GASTEIGER

@<TRIPOS>ATOM
      1 C         139.1556  140.6810  164.9433 C.3     1  UNL1        0.0497
      2 C         138.7241  141.5686  163.8138 C.2     1  UNL1        0.0679
      3 N         137.3269  141.7076  163.2858 N.2     1  UNL1       -0.1536
      4 N         137.3533  142.6980  162.1596 N.2     1  UNL1       -0.1145
      5 C         138.7668  143.1711  161.9914 C.2     1  UNL1        0.2315
      6 C         139.6139  142.4731  163.0137 C.3     1  UNL1        0.1240
      7 C         141.0862  142.7513  163.0841 C.3     1  UNL1        0.0644
      8 C         141.7113  143.7275  162.1320 C.2     1  UNL1        0.0987
      9 C         140.8642  144.4255  161.1098 C.2     1  UNL1        0.2002
     10 N         141.4893  145.4017  160.1577 N.pl3   1  UNL1       -0.3284
     11 O         139.3919  144.1473  161.0394 O.2     1  UNL1       -0.4246
     12 H         142.4556  145.5843  160.2039 H       1  UNL1        0.1451
     13 H         140.9332  145.8598  159.4867 H       1  UNL1        0.1451
     14 C         140.9568  141.7512  164.1944 C.ar    1  UNL1       -0.0174
     15 C         140.6801  142.2155  165.5937 C.ar    1  UNL1       -0.0039
     16 C         140.5507  141.2153  166.7040 C.ar    1  UNL1        0.0011
     17 C         140.6979  139.7508  166.4151 C.ar    1  UNL1        0.0039
     18 C         140.9746  139.2864  165.0159 C.ar    1  UNL1        0.0711
     19 C         141.1040  140.2866  163.9055 C.ar    1  UNL1       -0.0001
     20 C         140.2740  141.6797  168.1032 C.ar    1  UNL1        0.0192
     21 C         140.6099  143.0846  168.5074 C.ar    1  UNL1        0.0031
     22 C         140.3333  143.5489  169.9066 C.ar    1  UNL1        0.0207
     23 C         139.7207  142.6084  170.9017 C.ar    1  UNL1        0.0989
     24 N         139.3848  141.2035  170.4974 N.ar    1  UNL1       -0.2423
     25 C         139.6614  140.7391  169.0982 C.ar    1  UNL1        0.0988
     26 C         141.1218  137.8219  164.7270 C.3     1  UNL1        0.4186
     27 F         141.2690  136.3574  164.4381 F       1  UNL1       -0.1659
     28 F         139.7559  137.5727  165.2945 F       1  UNL1       -0.1659
     29 F         142.4877  138.0712  164.1594 F       1  UNL1       -0.1659
     30 C         142.5135  142.6822  163.5400 C.3     1  UNL1        0.0091
     31 C         143.0087  143.6213  164.5997 C.3     1  UNL1        0.0007
     32 C         143.4458  141.6741  162.9362 C.3     1  UNL1        0.0007
     33 C         143.1837  144.0058  162.2024 C.1     1  UNL1        0.1008
     34 N         144.6559  144.2840  162.2727 N.1     1  UNL1       -0.1910
@<TRIPOS>BOND
     1     1     2    1
     2     2     3    2
     3     3     4    1
     4     4     5    2
     5     5     6    1
     6     6     7    1
     7     7    14    1
     8    14    15   ar
     9    15    16   ar
    10    16    20    1
    11    20    21   ar
    12    21    22   ar
    13    22    23   ar
    14    23    24   ar
    15    24    25   ar
    16    16    17   ar
    17    17    18   ar
    18    18    26    1
    19    26    27    1
    20    26    28    1
    21    26    29    1
    22    18    19   ar
    23     7    30    1
    24    30    31    1
    25    30    32    1
    26     7     8    1
    27     8    33    1
    28    33    34    3
    29     8     9    2
    30     9    10    1
    31     9    11    1
    32     6     2    1
    33    19    14   ar
    34    11     5    1
    35    25    20   ar
    36    10    12    1
    37    10    13    1
@<TRIPOS>MOLECULE
*****
 34 37 0 0 0
SMALL
GASTEIGER

@<TRIPOS>ATOM
      1 C         140.8148  140.1707  164.6308 C.3     1  UNL1        0.0497
      2 C         139.6902  139.4907  165.3538 C.2     1  UNL1        0.0679
      3 N         138.7225  138.5121  164.7573 N.2     1  UNL1       -0.1536
      4 N         137.7700  138.0864  165.8351 N.2     1  UNL1       -0.1145
      5 C         138.1491  138.8019  167.0978 C.2     1  UNL1        0.2315
      6 C         139.3359  139.6698  166.8003 C.3     1  UNL1        0.1240
      7 C         139.9405  140.5111  167.8850 C.3     1  UNL1        0.0644
      8 C         139.3584  140.4844  169.2673 C.2     1  UNL1        0.0987
      9 C         138.1717  139.6166  169.5647 C.2     1  UNL1        0.2002
     10 N         137.5896  139.5900  170.9469 N.pl3   1  UNL1       -0.3284
     11 O         137.5670  138.7753  168.4800 O.2     1  UNL1       -0.4246
     12 H         137.9864  140.1421  171.6589 H       1  UNL1        0.1451
     13 H         136.8107  139.0204  171.1421 H       1  UNL1        0.1451
     14 C         140.8412  140.8735  166.7417 C.ar    1  UNL1       -0.0174
     15 C         140.4756  142.0064  165.8289 C.ar    1  UNL1       -0.0039
     16 C         141.3763  142.3688  164.6855 C.ar    1  UNL1        0.0011
     17 C         142.6426  141.5985  164.4549 C.ar    1  UNL1        0.0039
     18 C         143.0082  140.4657  165.3676 C.ar    1  UNL1        0.0711
     19 C         142.1075  140.1032  166.5110 C.ar    1  UNL1       -0.0001
     20 C         141.0107  143.5016  163.7728 C.ar    1  UNL1        0.0192
     21 C         139.6707  144.1638  163.8987 C.ar    1  UNL1        0.0031
     22 C         139.3052  145.2966  162.9860 C.ar    1  UNL1        0.0207
     23 C         140.2796  145.7673  161.9472 C.ar    1  UNL1        0.0989
     24 N         141.6196  145.1051  161.8213 N.ar    1  UNL1       -0.2423
     25 C         141.9852  143.9723  162.7341 C.ar    1  UNL1        0.0988
     26 C         144.2744  139.6954  165.1370 C.3     1  UNL1        0.4186
     27 F         145.5406  138.9250  164.9065 F       1  UNL1       -0.1659
     28 F         143.7445  138.5726  165.9787 F       1  UNL1       -0.1659
     29 F         144.8042  140.8182  164.2953 F       1  UNL1       -0.1659
     30 C         140.8579  141.4782  168.5727 C.3     1  UNL1        0.0091
     31 C         140.5202  142.9393  168.6043 C.3     1  UNL1        0.0007
     32 C         142.1131  140.9843  169.2289 C.3     1  UNL1        0.0007
     33 C         139.9631  141.3257  170.3521 C.1     1  UNL1        0.1008
     34 N         140.5677  142.1670  171.4368 N.1     1  UNL1       -0.1910
@<TRIPOS>BOND
     1     1     2    1
     2     2     3    2
     3     3     4    1
     4     4     5    2
     5     5     6    1
     6     6     7    1
     7     7    14    1
     8    14    15   ar
     9    15    16   ar
    10    16    20    1
    11    20    21   ar
    12    21    22   ar
    13    22    23   ar
    14    23    24   ar
    15    24    25   ar
    16    16    17   ar
    17    17    18   ar
    18    18    26    1
    19    26    27    1
    20    26    28    1
    21    26    29    1
    22    18    19   ar
    23     7    30    1
    24    30    31    1
    25    30    32    1
    26     7     8    1
    27     8    33    1
    28    33    34    3
    29     8     9    2
    30     9    10    1
    31     9    11    1
    32     6     2    1
    33    19    14   ar
    34    11     5    1
    35    25    20   ar
    36    10    12    1
    37    10    13    1
@<TRIPOS>MOLECULE
*****
 34 37 0 0 0
SMALL
GASTEIGER

@<TRIPOS>ATOM
      1 C         139.2555  140.9854  165.8060 C.3     1  UNL1        0.0497
      2 C         139.3704  139.6224  165.1902 C.2     1  UNL1        0.0679
      3 N         138.5246  138.4296  165.5249 N.2     1  UNL1       -0.1536
      4 N         138.9826  137.2830  164.6731 N.2     1  UNL1       -0.1145
      5 C         140.1114  137.7671  163.8121 C.2     1  UNL1        0.2315
      6 C         140.3510  139.2129  164.1316 C.3     1  UNL1        0.1240
      7 C         141.4313  139.9699  163.4174 C.3     1  UNL1        0.0644
      8 C         142.2719  139.2809  162.3836 C.2     1  UNL1        0.0987
      9 C         142.0323  137.8351  162.0641 C.2     1  UNL1        0.2002
     10 N         142.8729  137.1461  161.0303 N.pl3   1  UNL1       -0.3284
     11 O         140.9521  137.0782  162.7783 O.2     1  UNL1       -0.4246
     12 H         143.5819  137.6429  160.5615 H       1  UNL1        0.1451
     13 H         142.7156  136.1972  160.8205 H       1  UNL1        0.1451
     14 C         140.9020  141.0522  164.3109 C.ar    1  UNL1       -0.0174
     15 C         141.4944  141.2562  165.6739 C.ar    1  UNL1       -0.0039
     16 C         140.9651  142.3385  166.5673 C.ar    1  UNL1        0.0011
     17 C         139.8434  143.2168  166.0980 C.ar    1  UNL1        0.0039
     18 C         139.2510  143.0129  164.7352 C.ar    1  UNL1        0.0711
     19 C         139.7803  141.9305  163.8416 C.ar    1  UNL1       -0.0001
     20 C         141.5575  142.5425  167.9302 C.ar    1  UNL1        0.0192
     21 C         142.9833  142.1581  168.1935 C.ar    1  UNL1        0.0031
     22 C         143.5757  142.3621  169.5563 C.ar    1  UNL1        0.0207
     23 C         142.7423  142.9505  170.6560 C.ar    1  UNL1        0.0989
     24 N         141.3165  143.3348  170.3928 N.ar    1  UNL1       -0.2423
     25 C         140.7241  143.1308  169.0299 C.ar    1  UNL1        0.0988
     26 C         138.1293  143.8912  164.2658 C.3     1  UNL1        0.4186
     27 F         137.0075  144.7694  163.7963 F       1  UNL1       -0.1659
     28 F         137.5558  142.7434  163.4887 F       1  UNL1       -0.1659
     29 F         138.7028  145.0389  165.0428 F       1  UNL1       -0.1659
     30 C         142.3277  141.1026  163.0135 C.3     1  UNL1        0.0091
     31 C         143.6261  141.3241  163.7312 C.3     1  UNL1        0.0007
     32 C         141.9259  142.0139  161.8919 C.3     1  UNL1        0.0007
     33 C         143.3522  140.0378  161.6694 C.1     1  UNL1        0.1008
     34 N         144.4325  140.7948  160.9551 N.1     1  UNL1       -0.1910
@<TRIPOS>BOND
     1     1     2    1
     2     2     3    2
     3     3     4    1
     4     4     5    2
     5     5     6    1
     6     6     7    1
     7     7    14    1
     8    14    15   ar
     9    15    16   ar
    10    16    20    1
    11    20    21   ar
    12    21    22   ar
    13    22    23   ar
    14    23    24   ar
    15    24    25   ar
    16    16    17   ar
    17    17    18   ar
    18    18    26    1
    19    26    27    1
    20    26    28    1
    21    26    29    1
    22    18    19   ar
    23     7    30    1
    24    30    31    1
    25    30    32    1
    26     7     8    1
    27     8    33    1
    28    33    34    3
    29     8     9    2
    30     9    10    1
    31     9    11    1
    32     6     2    1
    33    19    14   ar
    34    11     5    1
    35    25    20   ar
    36    10    12    1
    37    10    13    1
@<TRIPOS>MOLECULE
*****
 34 37 0 0 0
SMALL
GASTEIGER

@<TRIPOS>ATOM
      1 C         141.7625  143.7111  164.7203 C.3     1  UNL1        0.0497
      2 C         142.8100  143.3736  163.7011 C.2     1  UNL1        0.0679
      3 N         143.8341  144.3172  163.1436 N.2     1  UNL1       -0.1536
      4 N         144.6744  143.5601  162.1584 N.2     1  UNL1       -0.1145
      5 C         144.1697  142.1485  162.1071 C.2     1  UNL1        0.2315
      6 C         143.0174  142.0333  163.0605 C.3     1  UNL1        0.1240
      7 C         142.3059  140.7227  163.2222 C.3     1  UNL1        0.0644
      8 C         142.7466  139.5274  162.4303 C.2     1  UNL1        0.0987
      9 C         143.8988  139.6426  161.4770 C.2     1  UNL1        0.2002
     10 N         144.3396  138.4472  160.6851 N.pl3   1  UNL1       -0.3284
     11 O         144.6104  140.9531  161.3153 O.2     1  UNL1       -0.4246
     12 H         143.8726  137.5870  160.7912 H       1  UNL1        0.1451
     13 H         145.0959  138.5229  160.0594 H       1  UNL1        0.1451
     14 C         141.5237  141.5644  164.1863 C.ar    1  UNL1       -0.0174
     15 C         141.9582  141.6640  165.6186 C.ar    1  UNL1       -0.0039
     16 C         141.1761  142.5057  166.5828 C.ar    1  UNL1        0.0011
     17 C         139.9594  143.2479  166.1148 C.ar    1  UNL1        0.0039
     18 C         139.5249  143.1483  164.6826 C.ar    1  UNL1        0.0711
     19 C         140.3071  142.3065  163.7183 C.ar    1  UNL1       -0.0001
     20 C         141.6106  142.6053  168.0150 C.ar    1  UNL1        0.0192
     21 C         143.0199  142.2618  168.3969 C.ar    1  UNL1        0.0031
     22 C         143.4543  142.3614  169.8292 C.ar    1  UNL1        0.0207
     23 C         142.4795  142.8045  170.8796 C.ar    1  UNL1        0.0989
     24 N         141.0702  143.1480  170.4977 N.ar    1  UNL1       -0.2423
     25 C         140.6357  143.0484  169.0655 C.ar    1  UNL1        0.0988
     26 C         138.3083  143.8904  164.2145 C.3     1  UNL1        0.4186
     27 F         137.0916  144.6324  163.7464 F       1  UNL1       -0.1659
     28 F         137.9084  142.7090  163.3813 F       1  UNL1       -0.1659
     29 F         138.7083  145.0717  165.0478 F       1  UNL1       -0.1659
     30 C         141.3227  139.7044  163.7186 C.3     1  UNL1        0.0091
     31 C         140.0100  139.5244  163.0156 C.3     1  UNL1        0.0007
     32 C         141.6523  138.8662  164.9181 C.3     1  UNL1        0.0007
     33 C         142.0351  138.2167  162.5920 C.1     1  UNL1        0.1008
     34 N         141.3235  136.9062  162.7536 N.1     1  UNL1       -0.1910
@<TRIPOS>BOND
     1     1     2    1
     2     2     3    2
     3     3     4    1
     4     4     5    2
     5     5     6    1
     6     6     7    1
     7     7    14    1
     8    14    15   ar
     9    15    16   ar
    10    16    20    1
    11    20    21   ar
    12    21    22   ar
    13    22    23   ar
    14    23    24   ar
    15    24    25   ar
    16    16    17   ar
    17    17    18   ar
    18    18    26    1
    19    26    27    1
    20    26    28    1
    21    26    29    1
    22    18    19   ar
    23     7    30    1
    24    30    31    1
    25    30    32    1
    26     7     8    1
    27     8    33    1
    28    33    34    3
    29     8     9    2
    30     9    10    1
    31     9    11    1
    32     6     2    1
    33    19    14   ar
    34    11     5    1
    35    25    20   ar
    36    10    12    1
    37    10    13    1
@<TRIPOS>MOLECULE
*****
 34 37 0 0 0
SMALL
GASTEIGER

@<TRIPOS>ATOM
      1 C         139.2354  142.0341  165.4340 C.3     1  UNL1        0.0497
      2 C         138.9200  143.0590  164.3852 C.2     1  UNL1        0.0679
      3 N         137.6377  143.8273  164.2606 N.2     1  UNL1       -0.1536
      4 N         137.7567  144.7388  163.0752 N.2     1  UNL1       -0.1145
      5 C         139.1125  144.5338  162.4672 C.2     1  UNL1        0.2315
      6 C         139.8315  143.4957  163.2768 C.3     1  UNL1        0.1240
      7 C         141.2232  143.0821  162.9001 C.3     1  UNL1        0.0644
      8 C         141.8961  143.7067  161.7138 C.2     1  UNL1        0.0987
      9 C         141.1772  144.7448  160.9043 C.2     1  UNL1        0.2002
     10 N         141.8500  145.3694  159.7180 N.pl3   1  UNL1       -0.3284
     11 O         139.7854  145.1584  161.2809 O.2     1  UNL1       -0.4246
     12 H         142.7635  145.0979  159.4707 H       1  UNL1        0.1451
     13 H         141.3781  146.0507  159.1866 H       1  UNL1        0.1451
     14 C         141.0078  142.2086  164.1003 C.ar    1  UNL1       -0.0174
     15 C         141.4593  142.6697  165.4544 C.ar    1  UNL1       -0.0039
     16 C         141.2438  141.7962  166.6545 C.ar    1  UNL1        0.0011
     17 C         140.5768  140.4615  166.5007 C.ar    1  UNL1        0.0039
     18 C         140.1252  140.0004  165.1467 C.ar    1  UNL1        0.0711
     19 C         140.3407  140.8739  163.9465 C.ar    1  UNL1       -0.0001
     20 C         141.6954  142.2574  168.0086 C.ar    1  UNL1        0.0192
     21 C         143.1174  142.0467  168.4370 C.ar    1  UNL1        0.0031
     22 C         143.5689  142.5078  169.7911 C.ar    1  UNL1        0.0207
     23 C         142.5985  143.1798  170.7167 C.ar    1  UNL1        0.0989
     24 N         141.1765  143.3905  170.2882 N.ar    1  UNL1       -0.2423
     25 C         140.7250  142.9293  168.9342 C.ar    1  UNL1        0.0988
     26 C         139.4582  138.6657  164.9928 C.3     1  UNL1        0.4186
     27 F         138.7912  137.3310  164.8389 F       1  UNL1       -0.1659
     28 F         140.0430  138.5320  163.6180 F       1  UNL1       -0.1659
     29 F         138.8734  138.7994  166.3677 F       1  UNL1       -0.1659
     30 C         142.5402  142.3652  162.9402 C.3     1  UNL1        0.0091
     31 C         143.6922  142.9547  163.6987 C.3     1  UNL1        0.0007
     32 C         142.7052  141.0588  162.2218 C.3     1  UNL1        0.0007
     33 C         143.2879  143.2931  161.3371 C.1     1  UNL1        0.1008
     34 N         144.6797  142.8795  160.9605 N.1     1  UNL1       -0.1910
@<TRIPOS>BOND
     1     1     2    1
     2     2     3    2
     3     3     4    1
     4     4     5    2
     5     5     6    1
     6     6     7    1
     7     7    14    1
     8    14    15   ar
     9    15    16   ar
    10    16    20    1
    11    20    21   ar
    12    21    22   ar
    13    22    23   ar
    14    23    24   ar
    15    24    25   ar
    16    16    17   ar
    17    17    18   ar
    18    18    26    1
    19    26    27    1
    20    26    28    1
    21    26    29    1
    22    18    19   ar
    23     7    30    1
    24    30    31    1
    25    30    32    1
    26     7     8    1
    27     8    33    1
    28    33    34    3
    29     8     9    2
    30     9    10    1
    31     9    11    1
    32     6     2    1
    33    19    14   ar
    34    11     5    1
    35    25    20   ar
    36    10    12    1
    37    10    13    1
@<TRIPOS>MOLECULE
*****
 34 37 0 0 0
SMALL
GASTEIGER

@<TRIPOS>ATOM
      1 C         142.4281  140.6498  165.1886 C.3     1  UNL1        0.0497
      2 C         143.1260  141.1840  163.9731 C.2     1  UNL1        0.0679
      3 N         144.4621  140.7389  163.4565 N.2     1  UNL1       -0.1536
      4 N         144.7722  141.5369  162.2249 N.2     1  UNL1       -0.1145
      5 C         143.6279  142.4753  161.9802 C.2     1  UNL1        0.2315
      6 C         142.6105  142.2572  163.0606 C.3     1  UNL1        0.1240
      7 C         141.3460  143.0639  163.0741 C.3     1  UNL1        0.0644
      8 C         141.0989  144.0888  162.0070 C.2     1  UNL1        0.0987
      9 C         142.1163  144.3069  160.9266 C.2     1  UNL1        0.2002
     10 N         141.8692  145.3318  159.8595 N.pl3   1  UNL1       -0.3284
     11 O         143.3807  143.5002  160.9132 O.2     1  UNL1       -0.4246
     12 H         141.0393  145.8614  159.8683 H       1  UNL1        0.1451
     13 H         142.5370  145.4750  159.1504 H       1  UNL1        0.1451
     14 C         141.1276  142.2171  164.2927 C.ar    1  UNL1       -0.0174
     15 C         141.6374  142.6766  165.6265 C.ar    1  UNL1       -0.0039
     16 C         141.4190  141.8298  166.8452 C.ar    1  UNL1        0.0011
     17 C         140.6909  140.5234  166.7301 C.ar    1  UNL1        0.0039
     18 C         140.1811  140.0639  165.3963 C.ar    1  UNL1        0.0711
     19 C         140.3995  140.9107  164.1776 C.ar    1  UNL1       -0.0001
     20 C         141.9288  142.2893  168.1789 C.ar    1  UNL1        0.0192
     21 C         143.3645  142.0653  168.5509 C.ar    1  UNL1        0.0031
     22 C         143.8743  142.5249  169.8847 C.ar    1  UNL1        0.0207
     23 C         142.9483  143.2085  170.8466 C.ar    1  UNL1        0.0989
     24 N         141.5125  143.4324  170.4746 N.ar    1  UNL1       -0.2423
     25 C         141.0027  142.9729  169.1408 C.ar    1  UNL1        0.0988
     26 C         139.4529  138.7576  165.2812 C.3     1  UNL1        0.4186
     27 F         138.7249  137.4512  165.1660 F       1  UNL1       -0.1659
     28 F         140.7641  138.0353  165.1849 F       1  UNL1       -0.1659
     29 F         138.1418  139.4799  165.3774 F       1  UNL1       -0.1659
     30 C         140.0056  143.5766  163.5106 C.3     1  UNL1        0.0091
     31 C         138.7523  142.9386  162.9889 C.3     1  UNL1        0.0007
     32 C         139.9185  144.7273  164.4689 C.3     1  UNL1        0.0007
     33 C         139.8344  144.8956  162.0204 C.1     1  UNL1        0.1008
     34 N         138.5699  145.7024  162.0338 N.1     1  UNL1       -0.1910
@<TRIPOS>BOND
     1     1     2    1
     2     2     3    2
     3     3     4    1
     4     4     5    2
     5     5     6    1
     6     6     7    1
     7     7    14    1
     8    14    15   ar
     9    15    16   ar
    10    16    20    1
    11    20    21   ar
    12    21    22   ar
    13    22    23   ar
    14    23    24   ar
    15    24    25   ar
    16    16    17   ar
    17    17    18   ar
    18    18    26    1
    19    26    27    1
    20    26    28    1
    21    26    29    1
    22    18    19   ar
    23     7    30    1
    24    30    31    1
    25    30    32    1
    26     7     8    1
    27     8    33    1
    28    33    34    3
    29     8     9    2
    30     9    10    1
    31     9    11    1
    32     6     2    1
    33    19    14   ar
    34    11     5    1
    35    25    20   ar
    36    10    12    1
    37    10    13    1
