@<TRIPOS>MOLECULE
*****
 28 30 0 0 0
SMALL
GASTEIGER

@<TRIPOS>ATOM
      1 C         140.1678  143.4034  164.5669 C.ar    1  UNL1        0.0550
      2 C         138.6912  143.5892  164.7542 C.ar    1  UNL1        0.0046
      3 C         137.8856  144.2984  163.7063 C.ar    1  UNL1        0.0015
      4 C         138.5566  144.8218  162.4711 C.ar    1  UNL1        0.0199
      5 C         140.0333  144.6361  162.2838 C.ar    1  UNL1        0.1221
      6 C         140.8388  143.9269  163.3316 C.ar    1  UNL1        0.0244
      7 N         140.4001  142.4800  166.9842 N.am    1  UNL1       -0.2804
      8 C         140.9734  142.6942  165.6148 C.2     1  UNL1        0.2495
      9 O         142.3525  142.1993  165.2932 O.2     1  UNL1       -0.2698
     10 H         139.4950  142.8048  167.1952 H       1  UNL1        0.1552
     11 C         144.4181  142.3931  170.2778 C.3     1  UNL1        0.0334
     12 C         143.2147  141.7273  169.6789 C.ar    1  UNL1        0.0068
     13 C         142.4091  142.4365  168.6310 C.ar    1  UNL1        0.0126
     14 C         141.2057  141.7707  168.0321 C.ar    1  UNL1        0.0504
     15 C         140.8081  140.3959  168.4809 C.ar    1  UNL1        0.0170
     16 C         141.6137  139.6867  169.5287 C.ar    1  UNL1        0.0306
     17 C         142.8171  140.3525  170.1277 C.ar    1  UNL1        0.1362
     18 F         143.6227  139.6433  171.1756 F       1  UNL1       -0.2045
     19 S         140.7043  145.1595  161.0486 S.O2    1  UNL1        0.0603
     20 O         141.9297  144.3583  161.3748 O.2     1  UNL1       -0.1530
     21 O         139.4789  145.9607  160.7224 O.2     1  UNL1       -0.1530
     22 N         141.3754  145.6829  159.8134 N.3     1  UNL1       -0.1782
     23 H         142.3590  145.4210  159.8792 H       1  UNL1        0.1488
     24 C         140.9005  145.2457  158.4594 C.3     1  UNL1        0.1075
     25 C         140.3615  146.1405  157.3828 C.3     1  UNL1        0.0520
     26 C         140.0091  145.2847  156.2022 C.3     1  UNL1        0.1437
     27 O         140.3304  143.8612  156.5492 O.3     1  UNL1       -0.3522
     28 C         140.8813  143.8371  157.9442 C.3     1  UNL1        0.1595
@<TRIPOS>BOND
     1    11    12    1
     2    12    13   ar
     3    13    14   ar
     4    14     7    1
     5     7     8   am
     6     8     9    2
     7     8     1    1
     8     1     2   ar
     9     2     3   ar
    10     3     4   ar
    11     4     5   ar
    12     5    19    1
    13    19    20    2
    14    19    21    2
    15    19    22    1
    16    24    22    1
    17    24    25    1
    18    25    26    1
    19    26    27    1
    20    27    28    1
    21     5     6   ar
    22    14    15   ar
    23    15    16   ar
    24    16    17   ar
    25    17    18    1
    26    17    12   ar
    27     6     1   ar
    28    28    24    1
    29     7    10    1
    30    22    23    1
@<TRIPOS>MOLECULE
*****
 28 30 0 0 0
SMALL
GASTEIGER

@<TRIPOS>ATOM
      1 C         139.2840  140.3020  163.9439 C.ar    1  UNL1        0.0550
      2 C         138.7202  138.9395  163.6685 C.ar    1  UNL1        0.0046
      3 C         138.1360  138.6275  162.3226 C.ar    1  UNL1        0.0015
      4 C         138.1156  139.6780  161.2521 C.ar    1  UNL1        0.0199
      5 C         138.6793  141.0404  161.5274 C.ar    1  UNL1        0.1221
      6 C         139.2635  141.3525  162.8733 C.ar    1  UNL1        0.0244
      7 N         140.6688  141.8669  165.4876 N.am    1  UNL1       -0.2804
      8 C         139.8682  140.6140  165.2897 C.2     1  UNL1        0.2495
      9 O         139.6518  139.6730  166.4377 O.2     1  UNL1       -0.2698
     10 H         140.8108  142.4845  164.7342 H       1  UNL1        0.1552
     11 C         140.1470  143.8072  170.2796 C.3     1  UNL1        0.0334
     12 C         140.9920  143.1490  169.2295 C.ar    1  UNL1        0.0068
     13 C         140.4079  142.8371  167.8836 C.ar    1  UNL1        0.0126
     14 C         141.2530  142.1789  166.8336 C.ar    1  UNL1        0.0504
     15 C         142.6822  141.8327  167.1293 C.ar    1  UNL1        0.0170
     16 C         143.2663  142.1447  168.4752 C.ar    1  UNL1        0.0306
     17 C         142.4212  142.8029  169.5253 C.ar    1  UNL1        0.1362
     18 F         143.0054  143.1149  170.8712 F       1  UNL1       -0.2045
     19 S         138.6589  142.0909  160.4569 S.O2    1  UNL1        0.0603
     20 O         137.7258  142.9202  161.2885 O.2     1  UNL1       -0.1530
     21 O         139.5920  141.2616  159.6253 O.2     1  UNL1       -0.1530
     22 N         138.6384  143.1415  159.3864 N.3     1  UNL1       -0.1782
     23 H         137.8493  143.7547  159.5906 H       1  UNL1        0.1488
     24 C         139.8323  144.0261  159.1808 C.3     1  UNL1        0.1075
     25 C         140.3374  144.5330  157.8624 C.3     1  UNL1        0.0520
     26 C         141.5479  145.3793  158.1243 C.3     1  UNL1        0.1437
     27 O         141.7909  145.3953  159.6044 O.3     1  UNL1       -0.3522
     28 C         140.7306  144.5590  160.2573 C.3     1  UNL1        0.1595
@<TRIPOS>BOND
     1    11    12    1
     2    12    13   ar
     3    13    14   ar
     4    14     7    1
     5     7     8   am
     6     8     9    2
     7     8     1    1
     8     1     2   ar
     9     2     3   ar
    10     3     4   ar
    11     4     5   ar
    12     5    19    1
    13    19    20    2
    14    19    21    2
    15    19    22    1
    16    24    22    1
    17    24    25    1
    18    25    26    1
    19    26    27    1
    20    27    28    1
    21     5     6   ar
    22    14    15   ar
    23    15    16   ar
    24    16    17   ar
    25    17    18    1
    26    17    12   ar
    27     6     1   ar
    28    28    24    1
    29     7    10    1
    30    22    23    1
@<TRIPOS>MOLECULE
*****
 28 30 0 0 0
SMALL
GASTEIGER

@<TRIPOS>ATOM
      1 C         142.8379  139.6660  163.3112 C.ar    1  UNL1        0.0550
      2 C         143.5581  138.5739  162.5773 C.ar    1  UNL1        0.0046
      3 C         144.0350  138.8017  161.1734 C.ar    1  UNL1        0.0015
      4 C         143.7917  140.1216  160.5035 C.ar    1  UNL1        0.0199
      5 C         143.0715  141.2137  161.2375 C.ar    1  UNL1        0.1221
      6 C         142.5946  140.9859  162.6413 C.ar    1  UNL1        0.0244
      7 N         141.8685  140.5927  165.5364 N.am    1  UNL1       -0.2804
      8 C         142.3611  139.4383  164.7150 C.2     1  UNL1        0.2495
      9 O         142.3768  138.0560  165.2975 O.2     1  UNL1       -0.2698
     10 H         141.8582  141.4999  165.1541 H       1  UNL1        0.1552
     11 C         142.8942  139.9731  170.5925 C.3     1  UNL1        0.0334
     12 C         141.9045  140.0551  169.4683 C.ar    1  UNL1        0.0068
     13 C         142.3813  140.2829  168.0645 C.ar    1  UNL1        0.0126
     14 C         141.3917  140.3649  166.9403 C.ar    1  UNL1        0.0504
     15 C         139.9252  140.2191  167.2199 C.ar    1  UNL1        0.0170
     16 C         139.4484  139.9913  168.6237 C.ar    1  UNL1        0.0306
     17 C         140.4381  139.9093  169.7479 C.ar    1  UNL1        0.1362
     18 F         139.9612  139.6815  171.1517 F       1  UNL1       -0.2045
     19 S         142.8281  142.5335  160.5676 S.O2    1  UNL1        0.0603
     20 O         143.9947  143.1223  161.3041 O.2     1  UNL1       -0.1530
     21 O         141.6616  141.9447  159.8312 O.2     1  UNL1       -0.1530
     22 N         142.5848  143.8534  159.8978 N.3     1  UNL1       -0.1782
     23 H         142.4127  143.6561  158.9120 H       1  UNL1        0.1488
     24 C         141.4656  144.7363  160.3645 C.3     1  UNL1        0.1075
     25 C         141.1652  145.1008  161.7883 C.3     1  UNL1        0.0520
     26 C         139.9642  145.9995  161.7931 C.3     1  UNL1        0.1437
     27 O         139.5223  146.1904  160.3724 O.3     1  UNL1       -0.3522
     28 C         140.4502  145.4097  159.4895 C.3     1  UNL1        0.1595
@<TRIPOS>BOND
     1    11    12    1
     2    12    13   ar
     3    13    14   ar
     4    14     7    1
     5     7     8   am
     6     8     9    2
     7     8     1    1
     8     1     2   ar
     9     2     3   ar
    10     3     4   ar
    11     4     5   ar
    12     5    19    1
    13    19    20    2
    14    19    21    2
    15    19    22    1
    16    24    22    1
    17    24    25    1
    18    25    26    1
    19    26    27    1
    20    27    28    1
    21     5     6   ar
    22    14    15   ar
    23    15    16   ar
    24    16    17   ar
    25    17    18    1
    26    17    12   ar
    27     6     1   ar
    28    28    24    1
    29     7    10    1
    30    22    23    1
@<TRIPOS>MOLECULE
*****
 28 30 0 0 0
SMALL
GASTEIGER

@<TRIPOS>ATOM
      1 C         143.6761  142.4568  164.6100 C.ar    1  UNL1        0.0550
      2 C         144.9522  141.8535  164.1026 C.ar    1  UNL1        0.0046
      3 C         145.3756  142.0795  162.6814 C.ar    1  UNL1        0.0015
      4 C         144.5229  142.9088  161.7677 C.ar    1  UNL1        0.0199
      5 C         143.2467  143.5122  162.2751 C.ar    1  UNL1        0.1221
      6 C         142.8233  143.2862  163.6962 C.ar    1  UNL1        0.0244
      7 N         142.1514  141.2605  166.3404 N.am    1  UNL1       -0.2804
      8 C         143.2527  142.2308  166.0312 C.2     1  UNL1        0.2495
      9 O         143.9307  142.9751  167.1432 O.2     1  UNL1       -0.2698
     10 H         141.7064  140.7719  165.6106 H       1  UNL1        0.1552
     11 C         139.7214  142.9072  170.6279 C.3     1  UNL1        0.0334
     12 C         140.5130  141.8579  169.9053 C.ar    1  UNL1        0.0068
     13 C         140.9364  142.0838  168.4842 C.ar    1  UNL1        0.0126
     14 C         141.7280  141.0345  167.7616 C.ar    1  UNL1        0.0504
     15 C         142.0963  139.7592  168.4601 C.ar    1  UNL1        0.0170
     16 C         141.6729  139.5332  169.8812 C.ar    1  UNL1        0.0306
     17 C         140.8813  140.5826  170.6038 C.ar    1  UNL1        0.1362
     18 F         140.4579  140.3566  172.0250 F       1  UNL1       -0.2045
     19 S         142.3939  144.3415  161.3614 S.O2    1  UNL1        0.0603
     20 O         143.1090  143.7684  160.1739 O.2     1  UNL1       -0.1530
     21 O         141.6789  144.9146  162.5489 O.2     1  UNL1       -0.1530
     22 N         141.5411  145.1709  160.4476 N.3     1  UNL1       -0.1782
     23 H         142.1763  145.7404  159.8884 H       1  UNL1        0.1488
     24 C         140.6002  144.5034  159.4888 C.3     1  UNL1        0.1075
     25 C         139.6855  143.3573  159.8049 C.3     1  UNL1        0.0520
     26 C         138.9288  143.0105  158.5571 C.3     1  UNL1        0.1437
     27 O         139.3757  143.9423  157.4698 O.3     1  UNL1       -0.3522
     28 C         140.4087  144.8649  158.0457 C.3     1  UNL1        0.1595
@<TRIPOS>BOND
     1    11    12    1
     2    12    13   ar
     3    13    14   ar
     4    14     7    1
     5     7     8   am
     6     8     9    2
     7     8     1    1
     8     1     2   ar
     9     2     3   ar
    10     3     4   ar
    11     4     5   ar
    12     5    19    1
    13    19    20    2
    14    19    21    2
    15    19    22    1
    16    24    22    1
    17    24    25    1
    18    25    26    1
    19    26    27    1
    20    27    28    1
    21     5     6   ar
    22    14    15   ar
    23    15    16   ar
    24    16    17   ar
    25    17    18    1
    26    17    12   ar
    27     6     1   ar
    28    28    24    1
    29     7    10    1
    30    22    23    1
@<TRIPOS>MOLECULE
*****
 28 30 0 0 0
SMALL
GASTEIGER

@<TRIPOS>ATOM
      1 C         139.9597  144.0637  163.3911 C.ar    1  UNL1        0.0550
      2 C         139.2436  145.3258  163.0114 C.ar    1  UNL1        0.0046
      3 C         139.6087  146.0437  161.7459 C.ar    1  UNL1        0.0015
      4 C         140.6899  145.4993  160.8601 C.ar    1  UNL1        0.0199
      5 C         141.4061  144.2372  161.2398 C.ar    1  UNL1        0.1221
      6 C         141.0410  143.5194  162.5052 C.ar    1  UNL1        0.0244
      7 N         140.6720  142.8175  165.5566 N.am    1  UNL1       -0.2804
      8 C         139.5947  143.3459  164.6565 C.2     1  UNL1        0.2495
      9 O         138.1522  143.1563  165.0219 O.2     1  UNL1       -0.2698
     10 H         141.6187  142.9419  165.3168 H       1  UNL1        0.1552
     11 C         140.1252  142.8018  170.7239 C.3     1  UNL1        0.0334
     12 C         140.0335  142.0918  169.4058 C.ar    1  UNL1        0.0068
     13 C         140.3986  142.8096  168.1403 C.ar    1  UNL1        0.0126
     14 C         140.3069  142.0997  166.8221 C.ar    1  UNL1        0.0504
     15 C         139.8500  140.6719  166.7694 C.ar    1  UNL1        0.0170
     16 C         139.4849  139.9542  168.0349 C.ar    1  UNL1        0.0306
     17 C         139.5766  140.6641  169.3531 C.ar    1  UNL1        0.1362
     18 F         139.2115  139.9463  170.6186 F       1  UNL1       -0.2045
     19 S         142.4872  143.6929  160.3540 S.O2    1  UNL1        0.0603
     20 O         141.4634  143.3579  159.3102 O.2     1  UNL1       -0.1530
     21 O         143.5110  144.0278  161.3978 O.2     1  UNL1       -0.1530
     22 N         143.5685  143.1485  159.4681 N.3     1  UNL1       -0.1782
     23 H         144.4521  143.5132  159.8239 H       1  UNL1        0.1488
     24 C         143.7405  141.6658  159.3192 C.3     1  UNL1        0.1075
     25 C         143.5517  140.6433  160.4004 C.3     1  UNL1        0.0520
     26 C         143.8260  139.2909  159.8123 C.3     1  UNL1        0.1437
     27 O         144.1843  139.4776  158.3677 O.3     1  UNL1       -0.3522
     28 C         144.1314  140.9453  158.0630 C.3     1  UNL1        0.1595
@<TRIPOS>BOND
     1    11    12    1
     2    12    13   ar
     3    13    14   ar
     4    14     7    1
     5     7     8   am
     6     8     9    2
     7     8     1    1
     8     1     2   ar
     9     2     3   ar
    10     3     4   ar
    11     4     5   ar
    12     5    19    1
    13    19    20    2
    14    19    21    2
    15    19    22    1
    16    24    22    1
    17    24    25    1
    18    25    26    1
    19    26    27    1
    20    27    28    1
    21     5     6   ar
    22    14    15   ar
    23    15    16   ar
    24    16    17   ar
    25    17    18    1
    26    17    12   ar
    27     6     1   ar
    28    28    24    1
    29     7    10    1
    30    22    23    1
@<TRIPOS>MOLECULE
*****
 28 30 0 0 0
SMALL
GASTEIGER

@<TRIPOS>ATOM
      1 C         140.3072  139.6351  164.3495 C.ar    1  UNL1        0.0550
      2 C         139.4009  138.5084  164.7481 C.ar    1  UNL1        0.0046
      3 C         138.8117  137.6127  163.6990 C.ar    1  UNL1        0.0015
      4 C         139.1289  137.8438  162.2513 C.ar    1  UNL1        0.0199
      5 C         140.0352  138.9705  161.8526 C.ar    1  UNL1        0.1221
      6 C         140.6244  139.8662  162.9017 C.ar    1  UNL1        0.0244
      7 N         140.7883  140.1603  166.8480 N.am    1  UNL1       -0.2804
      8 C         140.8964  140.5308  165.3985 C.2     1  UNL1        0.2495
      9 O         141.5938  141.7971  164.9982 O.2     1  UNL1       -0.2698
     10 H         140.3306  139.3292  167.1108 H       1  UNL1        0.1552
     11 C         140.3785  144.2650  170.0077 C.3     1  UNL1        0.0334
     12 C         141.1726  143.1084  169.4769 C.ar    1  UNL1        0.0068
     13 C         140.5834  142.2127  168.4279 C.ar    1  UNL1        0.0126
     14 C         141.3775  141.0560  167.8971 C.ar    1  UNL1        0.0504
     15 C         142.7607  140.7952  168.4154 C.ar    1  UNL1        0.0170
     16 C         143.3498  141.6909  169.4644 C.ar    1  UNL1        0.0306
     17 C         142.5558  142.8475  169.9952 C.ar    1  UNL1        0.1362
     18 F         143.1450  143.7433  171.0443 F       1  UNL1       -0.2045
     19 S         140.3524  139.2016  160.4049 S.O2    1  UNL1        0.0603
     20 O         141.4445  140.1525  160.7959 O.2     1  UNL1       -0.1530
     21 O         139.2603  138.2507  160.0138 O.2     1  UNL1       -0.1530
     22 N         140.6697  139.4327  158.9571 N.3     1  UNL1       -0.1782
     23 H         141.3250  140.2135  158.9202 H       1  UNL1        0.1488
     24 C         141.2648  138.3288  158.1342 C.3     1  UNL1        0.1075
     25 C         142.6241  137.7229  158.3228 C.3     1  UNL1        0.0520
     26 C         142.8044  136.6565  157.2833 C.3     1  UNL1        0.1437
     27 O         141.5567  136.6033  156.4525 O.3     1  UNL1       -0.3522
     28 C         140.6052  137.6368  156.9783 C.3     1  UNL1        0.1595
@<TRIPOS>BOND
     1    11    12    1
     2    12    13   ar
     3    13    14   ar
     4    14     7    1
     5     7     8   am
     6     8     9    2
     7     8     1    1
     8     1     2   ar
     9     2     3   ar
    10     3     4   ar
    11     4     5   ar
    12     5    19    1
    13    19    20    2
    14    19    21    2
    15    19    22    1
    16    24    22    1
    17    24    25    1
    18    25    26    1
    19    26    27    1
    20    27    28    1
    21     5     6   ar
    22    14    15   ar
    23    15    16   ar
    24    16    17   ar
    25    17    18    1
    26    17    12   ar
    27     6     1   ar
    28    28    24    1
    29     7    10    1
    30    22    23    1
@<TRIPOS>MOLECULE
*****
 28 30 0 0 0
SMALL
GASTEIGER

@<TRIPOS>ATOM
      1 C         139.8289  138.7148  164.2417 C.ar    1  UNL1        0.0550
      2 C         138.8432  137.7753  164.8708 C.ar    1  UNL1        0.0046
      3 C         138.2655  138.0872  166.2196 C.ar    1  UNL1        0.0015
      4 C         138.6735  139.3384  166.9392 C.ar    1  UNL1        0.0199
      5 C         139.6592  140.2779  166.3101 C.ar    1  UNL1        0.1221
      6 C         140.2369  139.9661  164.9614 C.ar    1  UNL1        0.0244
      7 N         140.4009  139.4464  161.8153 N.am    1  UNL1       -0.2804
      8 C         140.4065  138.4030  162.8930 C.2     1  UNL1        0.2495
      9 O         140.9899  137.0479  162.6219 O.2     1  UNL1       -0.2698
     10 H         140.0181  140.3358  161.9931 H       1  UNL1        0.1552
     11 C         139.7949  137.7346  156.9467 C.3     1  UNL1        0.0334
     12 C         140.6756  138.2787  158.0322 C.ar    1  UNL1        0.0068
     13 C         140.0979  138.5905  159.3810 C.ar    1  UNL1        0.0126
     14 C         140.9786  139.1345  160.4665 C.ar    1  UNL1        0.0504
     15 C         142.4370  139.3668  160.2033 C.ar    1  UNL1        0.0170
     16 C         143.0146  139.0549  158.8546 C.ar    1  UNL1        0.0306
     17 C         142.1339  138.5109  157.7691 C.ar    1  UNL1        0.1362
     18 F         142.7116  138.1991  156.4203 F       1  UNL1       -0.2045
     19 S         140.0673  141.5291  167.0297 S.O2    1  UNL1        0.0603
     20 O         139.6564  140.9129  168.3340 O.2     1  UNL1       -0.1530
     21 O         140.4782  142.1453  165.7253 O.2     1  UNL1       -0.1530
     22 N         140.4753  142.7804  167.7493 N.3     1  UNL1       -0.1782
     23 H         139.6509  143.1155  168.2478 H       1  UNL1        0.1488
     24 C         141.5969  142.7413  168.7445 C.3     1  UNL1        0.1075
     25 C         142.9386  142.1034  168.5364 C.3     1  UNL1        0.0520
     26 C         143.7446  142.3011  169.7859 C.3     1  UNL1        0.1437
     27 O         142.9013  143.0612  170.7662 O.3     1  UNL1       -0.3522
     28 C         141.5740  143.3333  170.1226 C.3     1  UNL1        0.1595
@<TRIPOS>BOND
     1    11    12    1
     2    12    13   ar
     3    13    14   ar
     4    14     7    1
     5     7     8   am
     6     8     9    2
     7     8     1    1
     8     1     2   ar
     9     2     3   ar
    10     3     4   ar
    11     4     5   ar
    12     5    19    1
    13    19    20    2
    14    19    21    2
    15    19    22    1
    16    24    22    1
    17    24    25    1
    18    25    26    1
    19    26    27    1
    20    27    28    1
    21     5     6   ar
    22    14    15   ar
    23    15    16   ar
    24    16    17   ar
    25    17    18    1
    26    17    12   ar
    27     6     1   ar
    28    28    24    1
    29     7    10    1
    30    22    23    1
@<TRIPOS>MOLECULE
*****
 28 30 0 0 0
SMALL
GASTEIGER

@<TRIPOS>ATOM
      1 C         139.8201  143.9512  162.6196 C.ar    1  UNL1        0.0550
      2 C         139.0706  144.9607  163.4376 C.ar    1  UNL1        0.0046
      3 C         138.9629  144.7907  164.9241 C.ar    1  UNL1        0.0015
      4 C         139.6047  143.6112  165.5925 C.ar    1  UNL1        0.0199
      5 C         140.3542  142.6017  164.7745 C.ar    1  UNL1        0.1221
      6 C         140.4619  142.7717  163.2881 C.ar    1  UNL1        0.0244
      7 N         141.0452  144.9347  160.5504 N.am    1  UNL1       -0.2804
      8 C         139.9278  144.1212  161.1332 C.2     1  UNL1        0.2495
      9 O         138.9182  143.4776  160.2296 O.2     1  UNL1       -0.2698
     10 H         141.7079  145.3571  161.1434 H       1  UNL1        0.1552
     11 C         139.3306  147.0561  156.1277 C.3     1  UNL1        0.0334
     12 C         140.2956  146.1653  156.8526 C.ar    1  UNL1        0.0068
     13 C         140.1879  145.9954  158.3390 C.ar    1  UNL1        0.0126
     14 C         141.1529  145.1046  159.0639 C.ar    1  UNL1        0.0504
     15 C         142.2255  144.3839  158.3023 C.ar    1  UNL1        0.0170
     16 C         142.3332  144.5539  156.8159 C.ar    1  UNL1        0.0306
     17 C         141.3682  145.4446  156.0910 C.ar    1  UNL1        0.1362
     18 F         141.4759  145.6145  154.6045 F       1  UNL1       -0.2045
     19 S         140.9960  141.4222  165.4430 S.O2    1  UNL1        0.0603
     20 O         141.9481  142.3408  166.1498 O.2     1  UNL1       -0.1530
     21 O         140.0439  140.5036  164.7362 O.2     1  UNL1       -0.1530
     22 N         141.6378  140.2427  166.1115 N.3     1  UNL1       -0.1782
     23 H         142.6457  140.3534  166.0000 H       1  UNL1        0.1488
     24 C         141.3896  139.9788  167.5671 C.3     1  UNL1        0.1075
     25 C         142.4276  139.6124  168.5862 C.3     1  UNL1        0.0520
     26 C         141.7393  139.4422  169.9081 C.3     1  UNL1        0.1437
     27 O         140.2761  139.7033  169.7060 O.3     1  UNL1       -0.3522
     28 C         140.0600  140.0349  168.2591 C.3     1  UNL1        0.1595
@<TRIPOS>BOND
     1    11    12    1
     2    12    13   ar
     3    13    14   ar
     4    14     7    1
     5     7     8   am
     6     8     9    2
     7     8     1    1
     8     1     2   ar
     9     2     3   ar
    10     3     4   ar
    11     4     5   ar
    12     5    19    1
    13    19    20    2
    14    19    21    2
    15    19    22    1
    16    24    22    1
    17    24    25    1
    18    25    26    1
    19    26    27    1
    20    27    28    1
    21     5     6   ar
    22    14    15   ar
    23    15    16   ar
    24    16    17   ar
    25    17    18    1
    26    17    12   ar
    27     6     1   ar
    28    28    24    1
    29     7    10    1
    30    22    23    1
@<TRIPOS>MOLECULE
*****
 28 30 0 0 0
SMALL
GASTEIGER

@<TRIPOS>ATOM
      1 C         143.5128  141.9642  163.8998 C.ar    1  UNL1        0.0550
      2 C         144.0549  143.3060  163.5054 C.ar    1  UNL1        0.0046
      3 C         144.5255  143.5413  162.1006 C.ar    1  UNL1        0.0015
      4 C         144.4540  142.4348  161.0904 C.ar    1  UNL1        0.0199
      5 C         143.9119  141.0930  161.4849 C.ar    1  UNL1        0.1221
      6 C         143.4413  140.8577  162.8896 C.ar    1  UNL1        0.0244
      7 N         142.0166  140.6707  165.5845 N.am    1  UNL1       -0.2804
      8 C         143.0422  141.7288  165.3045 C.2     1  UNL1        0.2495
      9 O         143.5972  142.5517  166.4292 O.2     1  UNL1       -0.2698
     10 H         141.6524  140.1306  164.8463 H       1  UNL1        0.1552
     11 C         142.7442  138.5718  170.2819 C.3     1  UNL1        0.0334
     12 C         141.9099  139.3859  169.3379 C.ar    1  UNL1        0.0068
     13 C         142.3804  139.6212  167.9332 C.ar    1  UNL1        0.0126
     14 C         141.5460  140.4353  166.9892 C.ar    1  UNL1        0.0504
     15 C         140.2411  141.0141  167.4499 C.ar    1  UNL1        0.0170
     16 C         139.7706  140.7787  168.8546 C.ar    1  UNL1        0.0306
     17 C         140.6050  139.9647  169.7986 C.ar    1  UNL1        0.1362
     18 F         140.1344  139.7293  171.2034 F       1  UNL1       -0.2045
     19 S         143.8404  139.9865  160.4747 S.O2    1  UNL1        0.0603
     20 O         143.9399  140.9921  159.3662 O.2     1  UNL1       -0.1530
     21 O         143.7409  138.9809  161.5832 O.2     1  UNL1       -0.1530
     22 N         143.7689  138.8800  159.4644 N.3     1  UNL1       -0.1782
     23 H         144.0979  138.0343  159.9302 H       1  UNL1        0.1488
     24 C         142.4589  138.5372  158.8191 C.3     1  UNL1        0.1075
     25 C         141.1049  138.9933  159.2760 C.3     1  UNL1        0.0520
     26 C         140.0821  138.4160  158.3428 C.3     1  UNL1        0.1437
     27 O         140.8040  137.6032  157.3093 O.3     1  UNL1       -0.3522
     28 C         142.2729  137.6781  157.6037 C.3     1  UNL1        0.1595
@<TRIPOS>BOND
     1    11    12    1
     2    12    13   ar
     3    13    14   ar
     4    14     7    1
     5     7     8   am
     6     8     9    2
     7     8     1    1
     8     1     2   ar
     9     2     3   ar
    10     3     4   ar
    11     4     5   ar
    12     5    19    1
    13    19    20    2
    14    19    21    2
    15    19    22    1
    16    24    22    1
    17    24    25    1
    18    25    26    1
    19    26    27    1
    20    27    28    1
    21     5     6   ar
    22    14    15   ar
    23    15    16   ar
    24    16    17   ar
    25    17    18    1
    26    17    12   ar
    27     6     1   ar
    28    28    24    1
    29     7    10    1
    30    22    23    1
