@<TRIPOS>MOLECULE
*****
 24 26 0 0 0
SMALL
GASTEIGER

@<TRIPOS>ATOM
      1 N         141.5939  140.8792  163.3853 N.am    1  UNL1       -0.2606
      2 C         141.8286  142.3295  163.0829 C.3     1  UNL1        0.1169
      3 C         141.9096  143.0676  164.3862 C.3     1  UNL1        0.1212
      4 N         141.7249  142.0735  165.4941 N.am    1  UNL1       -0.2413
      5 C         141.5298  140.7210  164.8756 C.2     1  UNL1        0.3111
      6 O         141.3092  139.4358  165.6170 O.2     1  UNL1       -0.2520
      7 C         141.7338  142.3783  166.9629 C.ar    1  UNL1        0.0562
      8 C         140.4736  142.8231  167.6441 C.ar    1  UNL1        0.0150
      9 C         140.4825  143.1279  169.1128 C.ar    1  UNL1        0.0021
     10 C         141.7516  142.9879  169.9002 C.ar    1  UNL1        0.0115
     11 C         143.0117  142.5432  169.2189 C.ar    1  UNL1        0.0589
     12 CL        144.2808  142.4032  170.0062 Cl      1  UNL1       -0.0822
     13 C         143.0028  142.2384  167.7502 C.ar    1  UNL1        0.0263
     14 C         141.4487  139.7801  162.3749 C.3     1  UNL1        0.1123
     15 C         140.1609  139.6176  161.6232 C.3     1  UNL1        0.0943
     16 N         138.8610  139.5485  162.3685 N.3     1  UNL1       -0.2635
     17 C         138.6546  138.4995  163.4207 C.3     1  UNL1        0.0900
     18 C         137.7675  140.5283  162.0617 C.3     1  UNL1        0.1405
     19 C         138.5227  144.7247  165.1763 C.3     1  UNL1        0.0557
     20 C         138.2171  143.8722  163.9806 C.ar    1  UNL1        0.1008
     21 C         138.2368  142.3729  163.9385 C.ar    1  UNL1        0.0550
     22 C         137.8699  141.9433  162.5489 C.ar    1  UNL1        0.1702
     23 O         137.6235  143.1771  161.7322 O.2     1  UNL1       -0.3567
     24 N         137.8380  144.3692  162.6170 N.ar    1  UNL1       -0.0817
@<TRIPOS>BOND
     1    19    20    1
     2    20    21   ar
     3    21    22   ar
     4    22    18    1
     5    18    16    1
     6    16    17    1
     7    16    15    1
     8    15    14    1
     9    14     1    1
    10     1     2    1
    11     2     3    1
    12     3     4    1
    13     4     7    1
    14     7     8   ar
    15     8     9   ar
    16     9    10   ar
    17    10    11   ar
    18    11    12    1
    19    11    13   ar
    20     4     5   am
    21     5     6    2
    22    22    23   ar
    23    23    24   ar
    24    24    20   ar
    25     5     1   am
    26    13     7   ar
@<TRIPOS>MOLECULE
*****
 24 26 0 0 0
SMALL
GASTEIGER

@<TRIPOS>ATOM
      1 N         139.8463  138.6148  164.6034 N.am    1  UNL1       -0.2606
      2 C         138.5967  138.6068  165.4332 C.3     1  UNL1        0.1169
      3 C         138.8730  139.3703  166.6945 C.3     1  UNL1        0.1212
      4 N         140.2932  139.8500  166.6442 N.am    1  UNL1       -0.2413
      5 C         140.8948  139.3831  165.3518 C.2     1  UNL1        0.3111
      6 O         142.2984  139.6395  164.8892 O.2     1  UNL1       -0.2520
      7 C         140.9898  140.6554  167.7008 C.ar    1  UNL1        0.0562
      8 C         142.2911  140.1765  168.2727 C.ar    1  UNL1        0.0150
      9 C         142.9876  140.9818  169.3292 C.ar    1  UNL1        0.0021
     10 C         142.3827  142.2660  169.8139 C.ar    1  UNL1        0.0115
     11 C         141.0814  142.7449  169.2420 C.ar    1  UNL1        0.0589
     12 CL        140.4765  144.0292  169.7267 Cl      1  UNL1       -0.0822
     13 C         140.3849  141.9396  168.1855 C.ar    1  UNL1        0.0263
     14 C         140.0173  137.9679  163.2609 C.3     1  UNL1        0.1123
     15 C         139.1316  138.3669  162.1179 C.3     1  UNL1        0.0943
     16 N         138.9317  139.8180  161.7950 N.3     1  UNL1       -0.2635
     17 C         139.9444  140.5476  160.9630 C.3     1  UNL1        0.0900
     18 C         137.7191  140.5394  162.3040 C.3     1  UNL1        0.1405
     19 C         138.5063  144.8089  165.3094 C.3     1  UNL1        0.0557
     20 C         138.1913  143.9282  164.1368 C.ar    1  UNL1        0.1008
     21 C         138.2050  142.4282  164.1320 C.ar    1  UNL1        0.0550
     22 C         137.8295  141.9656  162.7554 C.ar    1  UNL1        0.1702
     23 O         137.5836  143.1797  161.9095 O.2     1  UNL1       -0.3567
     24 N         137.8072  144.3926  162.7633 N.ar    1  UNL1       -0.0817
@<TRIPOS>BOND
     1    19    20    1
     2    20    21   ar
     3    21    22   ar
     4    22    18    1
     5    18    16    1
     6    16    17    1
     7    16    15    1
     8    15    14    1
     9    14     1    1
    10     1     2    1
    11     2     3    1
    12     3     4    1
    13     4     7    1
    14     7     8   ar
    15     8     9   ar
    16     9    10   ar
    17    10    11   ar
    18    11    12    1
    19    11    13   ar
    20     4     5   am
    21     5     6    2
    22    22    23   ar
    23    23    24   ar
    24    24    20   ar
    25     5     1   am
    26    13     7   ar
@<TRIPOS>MOLECULE
*****
 24 26 0 0 0
SMALL
GASTEIGER

@<TRIPOS>ATOM
      1 N         141.3525  140.6838  163.2666 N.am    1  UNL1       -0.2606
      2 C         141.6014  142.1104  163.6579 C.3     1  UNL1        0.1169
      3 C         141.6005  142.1871  165.1559 C.3     1  UNL1        0.1212
      4 N         141.3511  140.8079  165.6905 N.am    1  UNL1       -0.2413
      5 C         141.1978  139.8789  164.5228 C.2     1  UNL1        0.3111
      6 O         140.9358  138.4039  164.5981 O.2     1  UNL1       -0.2520
      7 C         141.2693  140.4250  167.1385 C.ar    1  UNL1        0.0562
      8 C         142.4767  139.8748  167.8381 C.ar    1  UNL1        0.0150
      9 C         142.3948  139.4919  169.2861 C.ar    1  UNL1        0.0021
     10 C         141.1056  139.6592  170.0345 C.ar    1  UNL1        0.0115
     11 C         139.8983  140.2094  169.3348 C.ar    1  UNL1        0.0589
     12 CL        138.6091  140.3768  170.0832 Cl      1  UNL1       -0.0822
     13 C         139.9801  140.5923  167.8869 C.ar    1  UNL1        0.0263
     14 C         141.2723  140.1551  161.8652 C.3     1  UNL1        0.1123
     15 C         139.9796  140.2302  161.1080 C.3     1  UNL1        0.0943
     16 N         138.7319  139.6383  161.6937 N.3     1  UNL1       -0.2635
     17 C         138.6750  138.1739  162.0135 C.3     1  UNL1        0.0900
     18 C         137.5412  140.5109  161.9597 C.3     1  UNL1        0.1405
     19 C         138.4334  144.6185  165.1553 C.3     1  UNL1        0.0557
     20 C         138.1447  143.7983  163.9331 C.ar    1  UNL1        0.1008
     21 C         138.0303  142.3036  163.8812 C.ar    1  UNL1        0.0550
     22 C         137.7346  141.9102  162.4642 C.ar    1  UNL1        0.1702
     23 O         137.6662  143.1618  161.6404 O.2     1  UNL1       -0.3567
     24 N         137.9196  144.3287  162.5482 N.ar    1  UNL1       -0.0817
@<TRIPOS>BOND
     1    19    20    1
     2    20    21   ar
     3    21    22   ar
     4    22    18    1
     5    18    16    1
     6    16    17    1
     7    16    15    1
     8    15    14    1
     9    14     1    1
    10     1     2    1
    11     2     3    1
    12     3     4    1
    13     4     7    1
    14     7     8   ar
    15     8     9   ar
    16     9    10   ar
    17    10    11   ar
    18    11    12    1
    19    11    13   ar
    20     4     5   am
    21     5     6    2
    22    22    23   ar
    23    23    24   ar
    24    24    20   ar
    25     5     1   am
    26    13     7   ar
@<TRIPOS>MOLECULE
*****
 24 26 0 0 0
SMALL
GASTEIGER

@<TRIPOS>ATOM
      1 N         140.9213  140.9596  163.4553 N.am    1  UNL1       -0.2606
      2 C         139.4229  140.9419  163.3872 C.3     1  UNL1        0.1169
      3 C         138.8936  141.0916  164.7827 C.3     1  UNL1        0.1212
      4 N         140.0648  141.2018  165.7133 N.am    1  UNL1       -0.2413
      5 C         141.3180  141.1203  164.8930 C.2     1  UNL1        0.3111
      6 O         142.7214  141.1875  165.4181 O.2     1  UNL1       -0.2520
      7 C         139.9951  141.3650  167.2028 C.ar    1  UNL1        0.0562
      8 C         139.5525  140.2187  168.0630 C.ar    1  UNL1        0.0150
      9 C         139.4828  140.3819  169.5524 C.ar    1  UNL1        0.0021
     10 C         139.8558  141.6915  170.1817 C.ar    1  UNL1        0.0115
     11 C         140.2984  142.8378  169.3215 C.ar    1  UNL1        0.0589
     12 CL        140.6713  144.1474  169.9507 Cl      1  UNL1       -0.0822
     13 C         140.3680  142.6746  167.8321 C.ar    1  UNL1        0.0263
     14 C         141.8584  140.8380  162.2904 C.3     1  UNL1        0.1123
     15 C         141.7991  141.8366  161.1727 C.3     1  UNL1        0.0943
     16 N         142.5925  143.1067  161.2589 N.3     1  UNL1       -0.2635
     17 C         144.0916  143.0559  161.2607 C.3     1  UNL1        0.0900
     18 C         141.8866  144.4276  161.3433 C.3     1  UNL1        0.1405
     19 C         138.5327  144.8614  165.3984 C.3     1  UNL1        0.0557
     20 C         139.0822  144.7527  164.0069 C.ar    1  UNL1        0.1008
     21 C         140.5314  144.6367  163.6379 C.ar    1  UNL1        0.0550
     22 C         140.6238  144.5533  162.1430 C.ar    1  UNL1        0.1702
     23 O         139.2317  144.6178  161.5883 O.2     1  UNL1       -0.3567
     24 N         138.2789  144.7410  162.7402 N.ar    1  UNL1       -0.0817
@<TRIPOS>BOND
     1    19    20    1
     2    20    21   ar
     3    21    22   ar
     4    22    18    1
     5    18    16    1
     6    16    17    1
     7    16    15    1
     8    15    14    1
     9    14     1    1
    10     1     2    1
    11     2     3    1
    12     3     4    1
    13     4     7    1
    14     7     8   ar
    15     8     9   ar
    16     9    10   ar
    17    10    11   ar
    18    11    12    1
    19    11    13   ar
    20     4     5   am
    21     5     6    2
    22    22    23   ar
    23    23    24   ar
    24    24    20   ar
    25     5     1   am
    26    13     7   ar
@<TRIPOS>MOLECULE
*****
 24 26 0 0 0
SMALL
GASTEIGER

@<TRIPOS>ATOM
      1 N         142.1059  140.1715  163.3231 N.am    1  UNL1       -0.2606
      2 C         141.3613  141.3951  162.8776 C.3     1  UNL1        0.1169
      3 C         141.1047  142.2469  164.0853 C.3     1  UNL1        0.1212
      4 N         141.6906  141.5498  165.2772 N.am    1  UNL1       -0.2413
      5 C         142.3094  140.2671  164.8061 C.2     1  UNL1        0.3111
      6 O         143.0089  139.2574  165.6670 O.2     1  UNL1       -0.2520
      7 C         141.6628  142.0479  166.6919 C.ar    1  UNL1        0.0562
      8 C         140.4042  142.6394  167.2541 C.ar    1  UNL1        0.0150
      9 C         140.3764  143.1374  168.6687 C.ar    1  UNL1        0.0021
     10 C         141.6071  143.0439  169.5211 C.ar    1  UNL1        0.0115
     11 C         142.8657  142.4524  168.9589 C.ar    1  UNL1        0.0589
     12 CL        144.0964  142.3590  169.8113 Cl      1  UNL1       -0.0822
     13 C         142.8935  141.9544  167.5443 C.ar    1  UNL1        0.0263
     14 C         142.5661  139.0494  162.4405 C.3     1  UNL1        0.1123
     15 C         141.6567  137.8879  162.1684 C.3     1  UNL1        0.0943
     16 N         140.2339  138.1292  161.7593 N.3     1  UNL1       -0.2635
     17 C         139.9297  138.7137  160.4117 C.3     1  UNL1        0.0900
     18 C         139.1152  137.7860  162.6977 C.3     1  UNL1        0.1405
     19 C         138.8438  139.5111  167.6808 C.3     1  UNL1        0.0557
     20 C         138.7261  139.4408  166.1871 C.ar    1  UNL1        0.1008
     21 C         139.1518  138.2915  165.3223 C.ar    1  UNL1        0.0550
     22 C         138.8509  138.6478  163.8966 C.ar    1  UNL1        0.1702
     23 O         138.2393  140.0174  163.8803 O.2     1  UNL1       -0.3567
     24 N         138.1622  140.5075  165.2959 N.ar    1  UNL1       -0.0817
@<TRIPOS>BOND
     1    19    20    1
     2    20    21   ar
     3    21    22   ar
     4    22    18    1
     5    18    16    1
     6    16    17    1
     7    16    15    1
     8    15    14    1
     9    14     1    1
    10     1     2    1
    11     2     3    1
    12     3     4    1
    13     4     7    1
    14     7     8   ar
    15     8     9   ar
    16     9    10   ar
    17    10    11   ar
    18    11    12    1
    19    11    13   ar
    20     4     5   am
    21     5     6    2
    22    22    23   ar
    23    23    24   ar
    24    24    20   ar
    25     5     1   am
    26    13     7   ar
@<TRIPOS>MOLECULE
*****
 24 26 0 0 0
SMALL
GASTEIGER

@<TRIPOS>ATOM
      1 N         142.6843  139.7171  164.5551 N.am    1  UNL1       -0.2606
      2 C         143.4367  138.8570  165.5268 C.3     1  UNL1        0.1169
      3 C         142.9088  139.1402  166.9020 C.3     1  UNL1        0.1212
      4 N         141.8301  140.1753  166.7803 N.am    1  UNL1       -0.2413
      5 C         141.6913  140.5319  165.3299 C.2     1  UNL1        0.3111
      6 O         140.7286  141.5283  164.7551 O.2     1  UNL1       -0.2520
      7 C         141.0305  140.7526  167.9105 C.ar    1  UNL1        0.0562
      8 C         140.0271  139.9014  168.6308 C.ar    1  UNL1        0.0150
      9 C         139.2276  140.4787  169.7610 C.ar    1  UNL1        0.0021
     10 C         139.4314  141.9072  170.1710 C.ar    1  UNL1        0.0115
     11 C         140.4347  142.7583  169.4507 C.ar    1  UNL1        0.0589
     12 CL        140.6385  144.1867  169.8607 Cl      1  UNL1       -0.0822
     13 C         141.2343  142.1810  168.3205 C.ar    1  UNL1        0.0263
     14 C         142.8888  139.7557  163.0697 C.3     1  UNL1        0.1123
     15 C         144.2706  139.9099  162.5066 C.3     1  UNL1        0.0943
     16 N         144.9895  141.2204  162.6317 N.3     1  UNL1       -0.2635
     17 C         145.8067  141.5139  163.8549 C.3     1  UNL1        0.0900
     18 C         144.8911  142.2376  161.5336 C.3     1  UNL1        0.1405
     19 C         140.8883  145.3501  163.0068 C.3     1  UNL1        0.0557
     20 C         141.8860  144.6117  162.1646 C.ar    1  UNL1        0.1008
     21 C         142.9652  143.7013  162.6709 C.ar    1  UNL1        0.0550
     22 C         143.7259  143.1810  161.4874 C.ar    1  UNL1        0.1702
     23 O         143.1168  143.7699  160.2496 O.2     1  UNL1       -0.3567
     24 N         141.9796  144.6541  160.6681 N.ar    1  UNL1       -0.0817
@<TRIPOS>BOND
     1    19    20    1
     2    20    21   ar
     3    21    22   ar
     4    22    18    1
     5    18    16    1
     6    16    17    1
     7    16    15    1
     8    15    14    1
     9    14     1    1
    10     1     2    1
    11     2     3    1
    12     3     4    1
    13     4     7    1
    14     7     8   ar
    15     8     9   ar
    16     9    10   ar
    17    10    11   ar
    18    11    12    1
    19    11    13   ar
    20     4     5   am
    21     5     6    2
    22    22    23   ar
    23    23    24   ar
    24    24    20   ar
    25     5     1   am
    26    13     7   ar
@<TRIPOS>MOLECULE
*****
 24 26 0 0 0
SMALL
GASTEIGER

@<TRIPOS>ATOM
      1 N         138.1718  142.3377  164.0735 N.am    1  UNL1       -0.2606
      2 C         137.8464  140.9294  163.6724 C.3     1  UNL1        0.1169
      3 C         138.6931  140.0053  164.4965 C.3     1  UNL1        0.1212
      4 N         139.5418  140.8425  165.4070 N.am    1  UNL1       -0.2413
      5 C         139.2195  142.2840  165.1456 C.2     1  UNL1        0.3111
      6 O         139.8367  143.4645  165.8351 O.2     1  UNL1       -0.2520
      7 C         140.5378  140.3284  166.4039 C.ar    1  UNL1        0.0562
      8 C         140.3488  140.6082  167.8654 C.ar    1  UNL1        0.0150
      9 C         141.3448  140.0941  168.8623 C.ar    1  UNL1        0.0021
     10 C         142.5298  139.3004  168.3976 C.ar    1  UNL1        0.0115
     11 C         142.7187  139.0207  166.9361 C.ar    1  UNL1        0.0589
     12 CL        143.9036  138.2269  166.4714 Cl      1  UNL1       -0.0822
     13 C         141.7227  139.5347  165.9393 C.ar    1  UNL1        0.0263
     14 C         137.5572  143.5813  163.5028 C.3     1  UNL1        0.1123
     15 C         138.4274  144.6228  162.8639 C.3     1  UNL1        0.0943
     16 N         139.2714  144.2688  161.6755 N.3     1  UNL1       -0.2635
     17 C         138.8955  143.1034  160.8091 C.3     1  UNL1        0.0900
     18 C         140.4912  145.0801  161.3535 C.3     1  UNL1        0.1405
     19 C         144.2954  144.1153  164.8859 C.3     1  UNL1        0.0557
     20 C         143.5622  144.2773  163.5874 C.ar    1  UNL1        0.1008
     21 C         142.1277  144.6867  163.4301 C.ar    1  UNL1        0.0550
     22 C         141.8135  144.7208  161.9638 C.ar    1  UNL1        0.1702
     23 O         143.0538  144.3325  161.2149 O.2     1  UNL1       -0.3567
     24 N         144.1345  144.0584  162.2184 N.ar    1  UNL1       -0.0817
@<TRIPOS>BOND
     1    19    20    1
     2    20    21   ar
     3    21    22   ar
     4    22    18    1
     5    18    16    1
     6    16    17    1
     7    16    15    1
     8    15    14    1
     9    14     1    1
    10     1     2    1
    11     2     3    1
    12     3     4    1
    13     4     7    1
    14     7     8   ar
    15     8     9   ar
    16     9    10   ar
    17    10    11   ar
    18    11    12    1
    19    11    13   ar
    20     4     5   am
    21     5     6    2
    22    22    23   ar
    23    23    24   ar
    24    24    20   ar
    25     5     1   am
    26    13     7   ar
@<TRIPOS>MOLECULE
*****
 24 26 0 0 0
SMALL
GASTEIGER

@<TRIPOS>ATOM
      1 N         142.6202  141.3351  163.1953 N.am    1  UNL1       -0.2606
      2 C         141.1670  141.0156  163.3861 C.3     1  UNL1        0.1169
      3 C         140.9343  140.7704  164.8475 C.3     1  UNL1        0.1212
      4 N         142.2436  140.9383  165.5599 N.am    1  UNL1       -0.2413
      5 C         143.2855  141.2873  164.5388 C.2     1  UNL1        0.3111
      6 O         144.7378  141.5435  164.8131 O.2     1  UNL1       -0.2520
      7 C         142.4711  140.7842  167.0346 C.ar    1  UNL1        0.0562
      8 C         142.2556  139.4532  167.6917 C.ar    1  UNL1        0.0150
      9 C         142.4831  139.2992  169.1663 C.ar    1  UNL1        0.0021
     10 C         142.9260  140.4763  169.9838 C.ar    1  UNL1        0.0115
     11 C         143.1415  141.8073  169.3267 C.ar    1  UNL1        0.0589
     12 CL        143.5845  142.9844  170.1442 Cl      1  UNL1       -0.0822
     13 C         142.9141  141.9613  167.8521 C.ar    1  UNL1        0.0263
     14 C         143.2903  141.6475  161.8902 C.3     1  UNL1        0.1123
     15 C         143.9459  142.9808  161.6839 C.3     1  UNL1        0.0943
     16 N         143.2199  144.2392  162.0570 N.3     1  UNL1       -0.2635
     17 C         143.7672  145.1300  163.1326 C.3     1  UNL1        0.0900
     18 C         141.9466  144.6069  161.3545 C.3     1  UNL1        0.1405
     19 C         138.4779  144.7816  165.3317 C.3     1  UNL1        0.0557
     20 C         139.0673  144.7682  163.9525 C.ar    1  UNL1        0.1008
     21 C         140.5258  144.6637  163.6180 C.ar    1  UNL1        0.0550
     22 C         140.6618  144.6878  162.1243 C.ar    1  UNL1        0.1702
     23 O         139.2873  144.8072  161.5357 O.2     1  UNL1       -0.3567
     24 N         138.3019  144.8568  162.6656 N.ar    1  UNL1       -0.0817
@<TRIPOS>BOND
     1    19    20    1
     2    20    21   ar
     3    21    22   ar
     4    22    18    1
     5    18    16    1
     6    16    17    1
     7    16    15    1
     8    15    14    1
     9    14     1    1
    10     1     2    1
    11     2     3    1
    12     3     4    1
    13     4     7    1
    14     7     8   ar
    15     8     9   ar
    16     9    10   ar
    17    10    11   ar
    18    11    12    1
    19    11    13   ar
    20     4     5   am
    21     5     6    2
    22    22    23   ar
    23    23    24   ar
    24    24    20   ar
    25     5     1   am
    26    13     7   ar
@<TRIPOS>MOLECULE
*****
 24 26 0 0 0
SMALL
GASTEIGER

@<TRIPOS>ATOM
      1 N         141.1962  144.2185  163.7106 N.am    1  UNL1       -0.2606
      2 C         142.4553  143.5024  163.3207 C.3     1  UNL1        0.1169
      3 C         142.7374  142.4604  164.3622 C.3     1  UNL1        0.1212
      4 N         141.6527  142.5324  165.3957 N.am    1  UNL1       -0.2413
      5 C         140.7002  143.6190  164.9930 C.2     1  UNL1        0.3111
      6 O         139.4680  144.0333  165.7414 O.2     1  UNL1       -0.2520
      7 C         141.5402  141.6694  166.6174 C.ar    1  UNL1        0.0562
      8 C         142.4291  140.4713  166.7738 C.ar    1  UNL1        0.0150
      9 C         142.3165  139.6084  167.9955 C.ar    1  UNL1        0.0021
     10 C         141.3151  139.9435  169.0608 C.ar    1  UNL1        0.0115
     11 C         140.4262  141.1415  168.9044 C.ar    1  UNL1        0.0589
     12 CL        139.4248  141.4766  169.9697 Cl      1  UNL1       -0.0822
     13 C         140.5388  142.0045  167.6827 C.ar    1  UNL1        0.0263
     14 C         140.5471  145.3376  162.9515 C.3     1  UNL1        0.1123
     15 C         139.2176  145.1235  162.2907 C.3     1  UNL1        0.0943
     16 N         138.9263  143.8275  161.5941 N.3     1  UNL1       -0.2635
     17 C         139.6007  143.5073  160.2930 C.3     1  UNL1        0.0900
     18 C         137.9606  142.8517  162.1984 C.3     1  UNL1        0.1405
     19 C         138.3986  139.3252  166.1039 C.3     1  UNL1        0.0557
     20 C         138.6672  140.1115  164.8551 C.ar    1  UNL1        0.1008
     21 C         137.8306  141.2385  164.3259 C.ar    1  UNL1        0.0550
     22 C         138.4658  141.7325  163.0599 C.ar    1  UNL1        0.1702
     23 O         139.6949  140.9107  162.8068 O.2     1  UNL1       -0.3567
     24 N         139.8193  139.9089  163.9163 N.ar    1  UNL1       -0.0817
@<TRIPOS>BOND
     1    19    20    1
     2    20    21   ar
     3    21    22   ar
     4    22    18    1
     5    18    16    1
     6    16    17    1
     7    16    15    1
     8    15    14    1
     9    14     1    1
    10     1     2    1
    11     2     3    1
    12     3     4    1
    13     4     7    1
    14     7     8   ar
    15     8     9   ar
    16     9    10   ar
    17    10    11   ar
    18    11    12    1
    19    11    13   ar
    20     4     5   am
    21     5     6    2
    22    22    23   ar
    23    23    24   ar
    24    24    20   ar
    25     5     1   am
    26    13     7   ar
