@<TRIPOS>MOLECULE
*****
 38 41 0 0 0
SMALL
GASTEIGER

@<TRIPOS>ATOM
      1 C         142.2236  139.3939  162.2683 C.ar    1  UNL1        0.1200
      2 N         141.4857  138.6790  161.1754 N.ar    1  UNL1       -0.2309
      3 C         142.3864  138.6071  159.9781 C.ar    1  UNL1        0.0997
      4 C         143.6810  139.2775  160.3310 C.ar    1  UNL1        0.0961
      5 N         143.5804  139.7638  161.7464 N.ar    1  UNL1       -0.3123
      6 C         142.0513  137.9756  158.6594 C.ar    1  UNL1        0.0193
      7 C         140.8701  138.4623  157.8733 C.ar    1  UNL1        0.0038
      8 C         140.5350  137.8309  156.5547 C.ar    1  UNL1        0.0296
      9 C         141.3811  136.7126  156.0220 C.ar    1  UNL1        0.1440
     10 F         141.0460  136.0811  154.7034 F       1  UNL1       -0.2042
     11 C         142.5622  136.2258  156.8081 C.ar    1  UNL1        0.0988
     12 C         142.8973  136.8573  158.1268 C.ar    1  UNL1        0.0077
     13 C         143.4083  135.1076  156.2755 C.3     1  UNL1        0.4207
     14 F         144.2543  133.9893  155.7429 F       1  UNL1       -0.1658
     15 F         144.3872  136.1064  155.7332 F       1  UNL1       -0.1658
     16 F         142.4294  134.1087  156.8178 F       1  UNL1       -0.1658
     17 N         140.6444  140.2742  166.3891 N.pl3   1  UNL1       -0.2934
     18 C         141.7124  139.2379  166.2007 C.3     1  UNL1        0.0926
     19 C         142.2388  138.9445  164.8272 C.3     1  UNL1        0.0290
     20 C         141.6972  139.6873  163.6418 C.3     1  UNL1        0.0603
     21 C         140.6292  140.7236  163.8302 C.3     1  UNL1        0.0290
     22 C         140.1028  141.0171  165.2038 C.3     1  UNL1        0.0926
     23 C         140.6591  141.7303  168.5407 C.ar    1  UNL1        0.0406
     24 C         140.1327  142.0237  169.9143 C.ar    1  UNL1        0.1258
     25 N         140.6738  143.1864  170.6924 N.pl3   1  UNL1       -0.3428
     26 N         139.0651  141.1544  170.5099 N.ar    1  UNL1       -0.2097
     27 C         138.5240  139.9918  169.7319 C.ar    1  UNL1        0.2012
     28 N         139.0504  139.6984  168.3583 N.ar    1  UNL1       -0.2092
     29 C         140.1180  140.5677  167.7627 C.ar    1  UNL1        0.1320
     30 H         141.3745  143.7569  170.3016 H       1  UNL1        0.1437
     31 H         140.3283  143.3790  171.5940 H       1  UNL1        0.1437
     32 C         143.1722  142.3015  168.2123 C.3     1  UNL1        0.0052
     33 C         141.7267  142.5996  167.9452 C.3     1  UNL1        0.0320
     34 C         144.6490  140.4921  162.5065 C.3     1  UNL1        0.1245
     35 C         144.8874  141.9512  162.2534 C.3     1  UNL1        0.0970
     36 N         144.4642  142.9680  163.2717 N.3     1  UNL1       -0.2687
     37 C         144.3721  142.5862  164.7194 C.3     1  UNL1        0.0897
     38 C         144.1332  144.3666  162.8424 C.3     1  UNL1        0.0897
@<TRIPOS>BOND
     1    32    33    1
     2    33    23    1
     3    23    24   ar
     4    24    25    1
     5    24    26   ar
     6    26    27   ar
     7    27    28   ar
     8    28    29   ar
     9    29    17    1
    10    17    18    1
    11    18    19    1
    12    19    20    1
    13    20     1    1
    14     1     2   ar
    15     2     3   ar
    16     3     6    1
    17     6     7   ar
    18     7     8   ar
    19     8     9   ar
    20     9    10    1
    21     9    11   ar
    22    11    13    1
    23    13    14    1
    24    13    15    1
    25    13    16    1
    26    11    12   ar
    27     3     4   ar
    28     4     5   ar
    29     5    34    1
    30    34    35    1
    31    35    36    1
    32    36    37    1
    33    36    38    1
    34    20    21    1
    35    21    22    1
    36    29    23   ar
    37    22    17    1
    38     5     1   ar
    39    12     6   ar
    40    25    30    1
    41    25    31    1
@<TRIPOS>MOLECULE
*****
 38 41 0 0 0
SMALL
GASTEIGER

@<TRIPOS>ATOM
      1 C         142.3451  139.8056  162.0595 C.ar    1  UNL1        0.1200
      2 N         141.5846  138.9654  161.0768 N.ar    1  UNL1       -0.2309
      3 C         142.3862  138.8930  159.8110 C.ar    1  UNL1        0.0997
      4 C         143.6421  139.6883  160.0114 C.ar    1  UNL1        0.0961
      5 N         143.6167  140.2523  161.4011 N.ar    1  UNL1       -0.3123
      6 C         141.9997  138.1547  158.5637 C.ar    1  UNL1        0.0193
      7 C         140.7416  138.5220  157.8341 C.ar    1  UNL1        0.0038
      8 C         140.3551  137.7839  156.5869 C.ar    1  UNL1        0.0296
      9 C         141.2267  136.6783  156.0691 C.ar    1  UNL1        0.1440
     10 F         140.8403  135.9401  154.8219 F       1  UNL1       -0.2042
     11 C         142.4848  136.3110  156.7987 C.ar    1  UNL1        0.0988
     12 C         142.8713  137.0492  158.0460 C.ar    1  UNL1        0.0077
     13 C         143.3565  135.2054  156.2810 C.3     1  UNL1        0.4207
     14 F         144.2281  134.0999  155.7633 F       1  UNL1       -0.1658
     15 F         144.3545  136.2171  155.8011 F       1  UNL1       -0.1658
     16 F         142.3584  134.1938  156.7609 F       1  UNL1       -0.1658
     17 N         141.0408  140.8094  166.2478 N.pl3   1  UNL1       -0.2934
     18 C         141.9272  139.6245  166.0019 C.3     1  UNL1        0.0926
     19 C         142.3620  139.2899  164.6059 C.3     1  UNL1        0.0290
     20 C         141.9103  140.1402  163.4556 C.3     1  UNL1        0.0603
     21 C         141.0239  141.3250  163.7014 C.3     1  UNL1        0.0290
     22 C         140.5892  141.6596  165.0975 C.3     1  UNL1        0.0926
     23 C         139.5358  140.3319  168.3110 C.ar    1  UNL1        0.0406
     24 C         139.1011  140.6665  169.7071 C.ar    1  UNL1        0.1258
     25 N         138.0307  139.8545  170.3743 N.pl3   1  UNL1       -0.3428
     26 N         139.7366  141.8131  170.4360 N.ar    1  UNL1       -0.2097
     27 C         140.8069  142.6251  169.7689 C.ar    1  UNL1        0.2012
     28 N         141.2416  142.2905  168.3728 N.ar    1  UNL1       -0.2092
     29 C         140.6060  141.1439  167.6439 C.ar    1  UNL1        0.1320
     30 H         137.6135  139.1020  169.8959 H       1  UNL1        0.1437
     31 H         137.7454  140.0742  171.2906 H       1  UNL1        0.1437
     32 C         137.9906  139.4480  166.4187 C.3     1  UNL1        0.0052
     33 C         138.9002  139.1854  167.5821 C.3     1  UNL1        0.0320
     34 C         144.6767  141.1122  162.0231 C.3     1  UNL1        0.1245
     35 C         144.5339  142.6053  162.0113 C.3     1  UNL1        0.0970
     36 N         144.2588  143.3426  163.2883 N.3     1  UNL1       -0.2687
     37 C         143.7571  144.7555  163.2454 C.3     1  UNL1        0.0897
     38 C         144.4855  142.6670  164.6082 C.3     1  UNL1        0.0897
@<TRIPOS>BOND
     1    32    33    1
     2    33    23    1
     3    23    24   ar
     4    24    25    1
     5    24    26   ar
     6    26    27   ar
     7    27    28   ar
     8    28    29   ar
     9    29    17    1
    10    17    18    1
    11    18    19    1
    12    19    20    1
    13    20     1    1
    14     1     2   ar
    15     2     3   ar
    16     3     6    1
    17     6     7   ar
    18     7     8   ar
    19     8     9   ar
    20     9    10    1
    21     9    11   ar
    22    11    13    1
    23    13    14    1
    24    13    15    1
    25    13    16    1
    26    11    12   ar
    27     3     4   ar
    28     4     5   ar
    29     5    34    1
    30    34    35    1
    31    35    36    1
    32    36    37    1
    33    36    38    1
    34    20    21    1
    35    21    22    1
    36    29    23   ar
    37    22    17    1
    38     5     1   ar
    39    12     6   ar
    40    25    30    1
    41    25    31    1
@<TRIPOS>MOLECULE
*****
 38 41 0 0 0
SMALL
GASTEIGER

@<TRIPOS>ATOM
      1 C         141.4925  140.8938  162.7924 C.ar    1  UNL1        0.1200
      2 N         141.4602  140.3331  164.1833 N.ar    1  UNL1       -0.2309
      3 C         141.0697  141.4381  165.1196 C.ar    1  UNL1        0.0997
      4 C         140.8606  142.6817  164.3073 C.ar    1  UNL1        0.0961
      5 N         141.1219  142.3453  162.8691 N.ar    1  UNL1       -0.3123
      6 C         140.9153  141.3201  166.6070 C.ar    1  UNL1        0.0193
      7 C         139.9005  140.3779  167.1833 C.ar    1  UNL1        0.0038
      8 C         139.7461  140.2599  168.6706 C.ar    1  UNL1        0.0296
      9 C         140.6066  141.0843  169.5817 C.ar    1  UNL1        0.1440
     10 F         140.4523  140.9664  171.0690 F       1  UNL1       -0.2042
     11 C         141.6215  142.0265  169.0054 C.ar    1  UNL1        0.0988
     12 C         141.7759  142.1444  167.5180 C.ar    1  UNL1        0.0077
     13 C         142.4821  142.8508  169.9164 C.3     1  UNL1        0.4207
     14 F         143.3426  143.6751  170.8274 F       1  UNL1       -0.1658
     15 F         141.3902  143.8738  170.0222 F       1  UNL1       -0.1658
     16 F         143.5739  141.8278  169.8106 F       1  UNL1       -0.1658
     17 N         142.5206  138.6205  159.0474 N.pl3   1  UNL1       -0.2934
     18 C         141.1014  139.0281  159.3116 C.3     1  UNL1        0.0926
     19 C         140.7587  139.7859  160.5599 C.3     1  UNL1        0.0290
     20 C         141.8352  140.1361  161.5441 C.3     1  UNL1        0.0603
     21 C         143.2544  139.7285  161.2799 C.3     1  UNL1        0.0290
     22 C         143.5971  138.9707  160.0316 C.3     1  UNL1        0.0926
     23 C         143.3195  138.6004  156.5753 C.ar    1  UNL1        0.0406
     24 C         143.6622  137.8426  155.3270 C.ar    1  UNL1        0.1258
     25 N         144.1184  138.5803  154.1032 N.pl3   1  UNL1       -0.3428
     26 N         143.5485  136.3471  155.3024 N.ar    1  UNL1       -0.2097
     27 C         143.0923  135.6094  156.5262 C.ar    1  UNL1        0.2012
     28 N         142.7497  136.3672  157.7745 N.ar    1  UNL1       -0.2092
     29 C         142.8633  137.8627  157.7990 C.ar    1  UNL1        0.1320
     30 H         144.1930  139.5619  154.1193 H       1  UNL1        0.1437
     31 H         144.3433  138.0830  153.2839 H       1  UNL1        0.1437
     32 C         144.7330  140.7433  156.9756 C.3     1  UNL1        0.0052
     33 C         143.4331  140.0959  156.5999 C.3     1  UNL1        0.0320
     34 C         141.0289  143.2939  161.7108 C.3     1  UNL1        0.1245
     35 C         142.0695  144.3586  161.5280 C.3     1  UNL1        0.0970
     36 N         143.3947  144.2392  162.2205 N.3     1  UNL1       -0.2687
     37 C         143.6919  145.0862  163.4222 C.3     1  UNL1        0.0897
     38 C         144.4226  143.2727  161.7113 C.3     1  UNL1        0.0897
@<TRIPOS>BOND
     1    32    33    1
     2    33    23    1
     3    23    24   ar
     4    24    25    1
     5    24    26   ar
     6    26    27   ar
     7    27    28   ar
     8    28    29   ar
     9    29    17    1
    10    17    18    1
    11    18    19    1
    12    19    20    1
    13    20     1    1
    14     1     2   ar
    15     2     3   ar
    16     3     6    1
    17     6     7   ar
    18     7     8   ar
    19     8     9   ar
    20     9    10    1
    21     9    11   ar
    22    11    13    1
    23    13    14    1
    24    13    15    1
    25    13    16    1
    26    11    12   ar
    27     3     4   ar
    28     4     5   ar
    29     5    34    1
    30    34    35    1
    31    35    36    1
    32    36    37    1
    33    36    38    1
    34    20    21    1
    35    21    22    1
    36    29    23   ar
    37    22    17    1
    38     5     1   ar
    39    12     6   ar
    40    25    30    1
    41    25    31    1
@<TRIPOS>MOLECULE
*****
 38 41 0 0 0
SMALL
GASTEIGER

@<TRIPOS>ATOM
      1 C         141.5561  140.9555  163.2962 C.ar    1  UNL1        0.1200
      2 N         142.3529  141.4069  164.4842 N.ar    1  UNL1       -0.2309
      3 C         141.4084  141.5825  165.6362 C.ar    1  UNL1        0.0997
      4 C         140.0278  141.2396  165.1601 C.ar    1  UNL1        0.0961
      5 N         140.1192  140.8521  163.7139 N.ar    1  UNL1       -0.3123
      6 C         141.7793  142.0236  167.0211 C.ar    1  UNL1        0.0193
      7 C         143.2201  142.0577  167.4367 C.ar    1  UNL1        0.0038
      8 C         143.5911  142.4988  168.8215 C.ar    1  UNL1        0.0296
      9 C         142.5210  142.9057  169.7909 C.ar    1  UNL1        0.1440
     10 F         142.8919  143.3467  171.1757 F       1  UNL1       -0.2042
     11 C         141.0802  142.8715  169.3753 C.ar    1  UNL1        0.0988
     12 C         140.7093  142.4304  167.9904 C.ar    1  UNL1        0.0077
     13 C         140.0102  143.2784  170.3446 C.3     1  UNL1        0.4207
     14 F         138.9402  143.6853  171.3139 F       1  UNL1       -0.1658
     15 F         140.4241  144.7128  170.1993 F       1  UNL1       -0.1658
     16 F         139.5963  141.8440  170.4898 F       1  UNL1       -0.1658
     17 N         143.1898  140.0673  159.1984 N.pl3   1  UNL1       -0.2934
     18 C         142.1555  141.1388  159.3774 C.3     1  UNL1        0.0926
     19 C         141.6110  141.4349  160.7433 C.3     1  UNL1        0.0290
     20 C         142.1007  140.6594  161.9303 C.3     1  UNL1        0.0603
     21 C         143.1350  139.5879  161.7513 C.3     1  UNL1        0.0290
     22 C         143.6796  139.2918  160.3853 C.3     1  UNL1        0.0926
     23 C         143.1101  138.6965  156.9928 C.ar    1  UNL1        0.0406
     24 C         143.6546  138.4005  155.6269 C.ar    1  UNL1        0.1258
     25 N         143.0303  137.3256  154.7872 N.pl3   1  UNL1       -0.3428
     26 N         144.8236  139.1793  155.1006 N.ar    1  UNL1       -0.2097
     27 C         145.4479  140.2541  155.9401 C.ar    1  UNL1        0.2012
     28 N         144.9034  140.5501  157.3060 N.ar    1  UNL1       -0.2092
     29 C         143.7344  139.7713  157.8324 C.ar    1  UNL1        0.1320
     30 H         142.2631  136.8144  155.1327 H       1  UNL1        0.1437
     31 H         143.3877  137.1313  153.8907 H       1  UNL1        0.1437
     32 C         140.5444  138.4130  157.2876 C.3     1  UNL1        0.0052
     33 C         141.9411  137.9176  157.5192 C.3     1  UNL1        0.0320
     34 C         138.9745  140.4346  162.8391 C.3     1  UNL1        0.1245
     35 C         138.6748  138.9784  162.6403 C.3     1  UNL1        0.0970
     36 N         139.3448  137.9501  163.5027 N.3     1  UNL1       -0.2687
     37 C         140.5844  137.2579  163.0187 C.3     1  UNL1        0.0897
     38 C         138.7753  137.6141  164.8490 C.3     1  UNL1        0.0897
@<TRIPOS>BOND
     1    32    33    1
     2    33    23    1
     3    23    24   ar
     4    24    25    1
     5    24    26   ar
     6    26    27   ar
     7    27    28   ar
     8    28    29   ar
     9    29    17    1
    10    17    18    1
    11    18    19    1
    12    19    20    1
    13    20     1    1
    14     1     2   ar
    15     2     3   ar
    16     3     6    1
    17     6     7   ar
    18     7     8   ar
    19     8     9   ar
    20     9    10    1
    21     9    11   ar
    22    11    13    1
    23    13    14    1
    24    13    15    1
    25    13    16    1
    26    11    12   ar
    27     3     4   ar
    28     4     5   ar
    29     5    34    1
    30    34    35    1
    31    35    36    1
    32    36    37    1
    33    36    38    1
    34    20    21    1
    35    21    22    1
    36    29    23   ar
    37    22    17    1
    38     5     1   ar
    39    12     6   ar
    40    25    30    1
    41    25    31    1
@<TRIPOS>MOLECULE
*****
 38 41 0 0 0
SMALL
GASTEIGER

@<TRIPOS>ATOM
      1 C         141.2116  139.6460  163.6911 C.ar    1  UNL1        0.1200
      2 N         141.5059  140.4150  164.9449 N.ar    1  UNL1       -0.2309
      3 C         140.6389  139.8667  166.0393 C.ar    1  UNL1        0.0997
      4 C         139.8087  138.7588  165.4619 C.ar    1  UNL1        0.0961
      5 N         140.1626  138.6224  164.0106 N.ar    1  UNL1       -0.3123
      6 C         140.6076  140.3427  167.4614 C.ar    1  UNL1        0.0193
      7 C         139.4384  140.0071  168.3391 C.ar    1  UNL1        0.0038
      8 C         139.4071  140.4830  169.7612 C.ar    1  UNL1        0.0296
      9 C         140.5450  141.2947  170.3057 C.ar    1  UNL1        0.1440
     10 F         140.5138  141.7707  171.7278 F       1  UNL1       -0.2042
     11 C         141.7142  141.6303  169.4280 C.ar    1  UNL1        0.0988
     12 C         141.7455  141.1543  168.0059 C.ar    1  UNL1        0.0077
     13 C         142.8521  142.4419  169.9725 C.3     1  UNL1        0.4207
     14 F         143.9900  143.2535  170.5170 F       1  UNL1       -0.1658
     15 F         143.7254  141.2223  169.9654 F       1  UNL1       -0.1658
     16 F         141.9789  143.6614  169.9796 F       1  UNL1       -0.1658
     17 N         143.1371  140.2958  159.6762 N.pl3   1  UNL1       -0.2934
     18 C         142.0105  141.1811  160.1197 C.3     1  UNL1        0.0926
     19 C         141.3686  140.9646  161.4580 C.3     1  UNL1        0.0290
     20 C         141.8534  139.8626  162.3528 C.3     1  UNL1        0.0603
     21 C         142.9801  138.9772  161.9093 C.3     1  UNL1        0.0290
     22 C         143.6220  139.1938  160.5709 C.3     1  UNL1        0.0926
     23 C         143.3350  139.7057  157.1537 C.ar    1  UNL1        0.0406
     24 C         143.9769  139.9224  155.8154 C.ar    1  UNL1        0.1258
     25 N         143.5329  139.1157  154.6312 N.pl3   1  UNL1       -0.3428
     26 N         145.0627  140.9457  155.6612 N.ar    1  UNL1       -0.2097
     27 C         145.5067  141.7523  156.8453 C.ar    1  UNL1        0.2012
     28 N         144.8649  141.5357  158.1836 N.ar    1  UNL1       -0.2092
     29 C         143.7790  140.5124  158.3378 C.ar    1  UNL1        0.1320
     30 H         142.8202  138.4441  154.7324 H       1  UNL1        0.1437
     31 H         143.9541  139.2579  153.7528 H       1  UNL1        0.1437
     32 C         142.6011  137.2528  157.5943 C.3     1  UNL1        0.0052
     33 C         142.2491  138.6824  157.3079 C.3     1  UNL1        0.0320
     34 C         139.5714  137.6357  163.0479 C.3     1  UNL1        0.1245
     35 C         138.3606  138.0058  162.2436 C.3     1  UNL1        0.0970
     36 N         138.5091  138.8367  161.0036 N.3     1  UNL1       -0.2687
     37 C         139.4234  138.3856  159.9035 C.3     1  UNL1        0.0897
     38 C         137.7432  140.1189  160.8639 C.3     1  UNL1        0.0897
@<TRIPOS>BOND
     1    32    33    1
     2    33    23    1
     3    23    24   ar
     4    24    25    1
     5    24    26   ar
     6    26    27   ar
     7    27    28   ar
     8    28    29   ar
     9    29    17    1
    10    17    18    1
    11    18    19    1
    12    19    20    1
    13    20     1    1
    14     1     2   ar
    15     2     3   ar
    16     3     6    1
    17     6     7   ar
    18     7     8   ar
    19     8     9   ar
    20     9    10    1
    21     9    11   ar
    22    11    13    1
    23    13    14    1
    24    13    15    1
    25    13    16    1
    26    11    12   ar
    27     3     4   ar
    28     4     5   ar
    29     5    34    1
    30    34    35    1
    31    35    36    1
    32    36    37    1
    33    36    38    1
    34    20    21    1
    35    21    22    1
    36    29    23   ar
    37    22    17    1
    38     5     1   ar
    39    12     6   ar
    40    25    30    1
    41    25    31    1
@<TRIPOS>MOLECULE
*****
 38 41 0 0 0
SMALL
GASTEIGER

@<TRIPOS>ATOM
      1 C         139.7939  141.4875  163.7743 C.ar    1  UNL1        0.1200
      2 N         140.3237  141.8887  165.1190 N.ar    1  UNL1       -0.2309
      3 C         139.7558  140.9484  166.1404 C.ar    1  UNL1        0.0997
      4 C         138.8749  139.9660  165.4270 C.ar    1  UNL1        0.0961
      5 N         138.8985  140.2991  163.9647 N.ar    1  UNL1       -0.3123
      6 C         140.0220  140.9842  167.6162 C.ar    1  UNL1        0.0193
      7 C         139.2484  140.0906  168.5398 C.ar    1  UNL1        0.0038
      8 C         139.5145  140.1264  170.0155 C.ar    1  UNL1        0.0296
      9 C         140.5544  141.0559  170.5678 C.ar    1  UNL1        0.1440
     10 F         140.8206  141.0917  172.0434 F       1  UNL1       -0.2042
     11 C         141.3280  141.9495  169.6442 C.ar    1  UNL1        0.0988
     12 C         141.0618  141.9137  168.1684 C.ar    1  UNL1        0.0077
     13 C         142.3678  142.8789  170.1964 C.3     1  UNL1        0.4207
     14 F         143.4076  143.8083  170.7486 F       1  UNL1       -0.1658
     15 F         141.4009  144.0211  170.0946 F       1  UNL1       -0.1658
     16 F         143.3347  141.7367  170.2982 F       1  UNL1       -0.1658
     17 N         140.7267  143.4960  159.8570 N.pl3   1  UNL1       -0.2934
     18 C         139.5557  143.9543  160.6747 C.3     1  UNL1        0.0926
     19 C         139.2447  143.2848  161.9804 C.3     1  UNL1        0.0290
     20 C         140.1048  142.1569  162.4686 C.3     1  UNL1        0.0603
     21 C         141.2759  141.6986  161.6509 C.3     1  UNL1        0.0290
     22 C         141.5868  142.3682  160.3451 C.3     1  UNL1        0.0926
     23 C         140.4588  143.6279  157.2761 C.ar    1  UNL1        0.0406
     24 C         140.7698  144.2974  155.9704 C.ar    1  UNL1        0.1258
     25 N         140.1909  143.7598  154.6952 N.pl3   1  UNL1       -0.3428
     26 N         141.6595  145.5047  155.9397 N.ar    1  UNL1       -0.2097
     27 C         142.2384  146.0423  157.2148 C.ar    1  UNL1        0.2012
     28 N         141.9274  145.3728  158.5205 N.ar    1  UNL1       -0.2092
     29 C         141.0377  144.1655  158.5512 C.ar    1  UNL1        0.1320
     30 H         139.6070  142.9674  154.7153 H       1  UNL1        0.1437
     31 H         140.3950  144.1992  153.8382 H       1  UNL1        0.1437
     32 C         138.0993  142.5785  157.5612 C.3     1  UNL1        0.0052
     33 C         139.5691  142.4207  157.3068 C.3     1  UNL1        0.0320
     34 C         138.1568  139.5717  162.8827 C.3     1  UNL1        0.1245
     35 C         138.5865  138.1937  162.4748 C.3     1  UNL1        0.0970
     36 N         140.0419  137.8899  162.2761 N.3     1  UNL1       -0.2687
     37 C         140.8361  137.2662  163.3853 C.3     1  UNL1        0.0897
     38 C         140.7031  138.2097  160.9682 C.3     1  UNL1        0.0897
@<TRIPOS>BOND
     1    32    33    1
     2    33    23    1
     3    23    24   ar
     4    24    25    1
     5    24    26   ar
     6    26    27   ar
     7    27    28   ar
     8    28    29   ar
     9    29    17    1
    10    17    18    1
    11    18    19    1
    12    19    20    1
    13    20     1    1
    14     1     2   ar
    15     2     3   ar
    16     3     6    1
    17     6     7   ar
    18     7     8   ar
    19     8     9   ar
    20     9    10    1
    21     9    11   ar
    22    11    13    1
    23    13    14    1
    24    13    15    1
    25    13    16    1
    26    11    12   ar
    27     3     4   ar
    28     4     5   ar
    29     5    34    1
    30    34    35    1
    31    35    36    1
    32    36    37    1
    33    36    38    1
    34    20    21    1
    35    21    22    1
    36    29    23   ar
    37    22    17    1
    38     5     1   ar
    39    12     6   ar
    40    25    30    1
    41    25    31    1
@<TRIPOS>MOLECULE
*****
 38 41 0 0 0
SMALL
GASTEIGER

@<TRIPOS>ATOM
      1 C         141.8047  141.1425  163.5458 C.ar    1  UNL1        0.1200
      2 N         141.6682  141.6452  164.9524 N.ar    1  UNL1       -0.2309
      3 C         141.8570  140.4822  165.8807 C.ar    1  UNL1        0.0997
      4 C         142.1102  139.2606  165.0477 C.ar    1  UNL1        0.0961
      5 N         142.0778  139.6688  163.6047 N.ar    1  UNL1       -0.3123
      6 C         141.8022  140.5319  167.3789 C.ar    1  UNL1        0.0193
      7 C         142.5445  139.5122  168.1908 C.ar    1  UNL1        0.0038
      8 C         142.4898  139.5619  169.6889 C.ar    1  UNL1        0.0296
      9 C         141.6927  140.6313  170.3753 C.ar    1  UNL1        0.1440
     10 F         141.6379  140.6811  171.8734 F       1  UNL1       -0.2042
     11 C         140.9504  141.6510  169.5633 C.ar    1  UNL1        0.0988
     12 C         141.0051  141.6013  168.0652 C.ar    1  UNL1        0.0077
     13 C         140.1533  142.7204  170.2496 C.3     1  UNL1        0.4207
     14 F         139.3562  143.7898  170.9359 F       1  UNL1       -0.1658
     15 F         141.3305  143.6469  170.1732 F       1  UNL1       -0.1658
     16 F         138.9761  141.7940  170.3261 F       1  UNL1       -0.1658
     17 N         141.4559  143.6206  159.8058 N.pl3   1  UNL1       -0.2934
     18 C         140.5961  142.4043  159.9825 C.3     1  UNL1        0.0926
     19 C         140.7124  141.5782  161.2291 C.3     1  UNL1        0.0290
     20 C         141.6885  141.9685  162.2992 C.3     1  UNL1        0.0603
     21 C         142.5483  143.1849  162.1225 C.3     1  UNL1        0.0290
     22 C         142.4320  144.0109  160.8758 C.3     1  UNL1        0.0926
     23 C         142.3033  144.2382  157.4287 C.ar    1  UNL1        0.0406
     24 C         142.1870  145.0642  156.1821 C.ar    1  UNL1        0.1258
     25 N         143.1507  144.8557  155.0516 N.pl3   1  UNL1       -0.3428
     26 N         141.1070  146.0987  156.0659 N.ar    1  UNL1       -0.2097
     27 C         140.1434  146.3071  157.1963 C.ar    1  UNL1        0.2012
     28 N         140.2597  145.4811  158.4429 N.ar    1  UNL1       -0.2092
     29 C         141.3396  144.4466  158.5591 C.ar    1  UNL1        0.1320
     30 H         143.8595  144.1768  155.1278 H       1  UNL1        0.1437
     31 H         143.0743  145.3979  154.2334 H       1  UNL1        0.1437
     32 C         143.1108  141.7860  157.1378 C.3     1  UNL1        0.0052
     33 C         143.3833  143.2037  157.5449 C.3     1  UNL1        0.0320
     34 C         142.2827  138.7623  162.4273 C.3     1  UNL1        0.1245
     35 C         141.3423  137.6183  162.1889 C.3     1  UNL1        0.0970
     36 N         139.8621  137.8586  162.1550 N.3     1  UNL1       -0.2687
     37 C         139.0515  137.7241  163.4099 C.3     1  UNL1        0.0897
     38 C         139.1925  138.2334  160.8661 C.3     1  UNL1        0.0897
@<TRIPOS>BOND
     1    32    33    1
     2    33    23    1
     3    23    24   ar
     4    24    25    1
     5    24    26   ar
     6    26    27   ar
     7    27    28   ar
     8    28    29   ar
     9    29    17    1
    10    17    18    1
    11    18    19    1
    12    19    20    1
    13    20     1    1
    14     1     2   ar
    15     2     3   ar
    16     3     6    1
    17     6     7   ar
    18     7     8   ar
    19     8     9   ar
    20     9    10    1
    21     9    11   ar
    22    11    13    1
    23    13    14    1
    24    13    15    1
    25    13    16    1
    26    11    12   ar
    27     3     4   ar
    28     4     5   ar
    29     5    34    1
    30    34    35    1
    31    35    36    1
    32    36    37    1
    33    36    38    1
    34    20    21    1
    35    21    22    1
    36    29    23   ar
    37    22    17    1
    38     5     1   ar
    39    12     6   ar
    40    25    30    1
    41    25    31    1
@<TRIPOS>MOLECULE
*****
 38 41 0 0 0
SMALL
GASTEIGER

@<TRIPOS>ATOM
      1 C         141.4357  140.9463  163.2530 C.ar    1  UNL1        0.1200
      2 N         142.2487  141.4134  164.4238 N.ar    1  UNL1       -0.2309
      3 C         141.3293  141.5514  165.6010 C.ar    1  UNL1        0.0997
      4 C         139.9480  141.1696  165.1576 C.ar    1  UNL1        0.0961
      5 N         140.0139  140.7957  163.7065 N.ar    1  UNL1       -0.3123
      6 C         141.7221  141.9935  166.9795 C.ar    1  UNL1        0.0193
      7 C         143.1690  142.0230  167.3738 C.ar    1  UNL1        0.0038
      8 C         143.5619  142.4651  168.7522 C.ar    1  UNL1        0.0296
      9 C         142.5077  142.8778  169.7365 C.ar    1  UNL1        0.1440
     10 F         142.9005  143.3199  171.1149 F       1  UNL1       -0.2042
     11 C         141.0608  142.8483  169.3421 C.ar    1  UNL1        0.0988
     12 C         140.6680  142.4062  167.9636 C.ar    1  UNL1        0.0077
     13 C         140.0067  143.2610  170.3262 C.3     1  UNL1        0.4207
     14 F         138.9526  143.6736  171.3104 F       1  UNL1       -0.1658
     15 F         140.3781  144.6997  170.1208 F       1  UNL1       -0.1658
     16 F         139.6353  141.8223  170.5317 F       1  UNL1       -0.1658
     17 N         142.9897  140.1389  159.1077 N.pl3   1  UNL1       -0.2934
     18 C         143.7494  139.6447  160.3030 C.3     1  UNL1        0.0926
     19 C         143.2314  139.9139  161.6847 C.3     1  UNL1        0.0290
     20 C         141.9537  140.6772  161.8712 C.3     1  UNL1        0.0603
     21 C         141.1940  141.1714  160.6760 C.3     1  UNL1        0.0290
     22 C         141.7120  140.9022  159.2942 C.3     1  UNL1        0.0926
     23 C         144.1957  140.9588  156.9575 C.ar    1  UNL1        0.0406
     24 C         144.7137  140.6896  155.5758 C.ar    1  UNL1        0.1258
     25 N         145.4017  141.7788  154.8073 N.pl3   1  UNL1       -0.3428
     26 N         144.5437  139.3313  154.9625 N.ar    1  UNL1       -0.2097
     27 C         143.8557  138.2422  155.7309 C.ar    1  UNL1        0.2012
     28 N         143.3377  138.5114  157.1126 N.ar    1  UNL1       -0.2092
     29 C         143.5077  139.8697  157.7259 C.ar    1  UNL1        0.1320
     30 H         145.5133  142.6703  155.2098 H       1  UNL1        0.1437
     31 H         145.7417  141.6021  153.9004 H       1  UNL1        0.1437
     32 C         145.6024  142.6353  158.3577 C.3     1  UNL1        0.0052
     33 C         144.3657  142.3171  157.5708 C.3     1  UNL1        0.0320
     34 C         138.8603  140.3495  162.8578 C.3     1  UNL1        0.1245
     35 C         138.4419  138.9090  162.8582 C.3     1  UNL1        0.0970
     36 N         139.2334  137.8983  163.6341 N.3     1  UNL1       -0.2687
     37 C         138.7804  137.4803  165.0016 C.3     1  UNL1        0.0897
     38 C         140.4778  137.3055  163.0424 C.3     1  UNL1        0.0897
@<TRIPOS>BOND
     1    32    33    1
     2    33    23    1
     3    23    24   ar
     4    24    25    1
     5    24    26   ar
     6    26    27   ar
     7    27    28   ar
     8    28    29   ar
     9    29    17    1
    10    17    18    1
    11    18    19    1
    12    19    20    1
    13    20     1    1
    14     1     2   ar
    15     2     3   ar
    16     3     6    1
    17     6     7   ar
    18     7     8   ar
    19     8     9   ar
    20     9    10    1
    21     9    11   ar
    22    11    13    1
    23    13    14    1
    24    13    15    1
    25    13    16    1
    26    11    12   ar
    27     3     4   ar
    28     4     5   ar
    29     5    34    1
    30    34    35    1
    31    35    36    1
    32    36    37    1
    33    36    38    1
    34    20    21    1
    35    21    22    1
    36    29    23   ar
    37    22    17    1
    38     5     1   ar
    39    12     6   ar
    40    25    30    1
    41    25    31    1
@<TRIPOS>MOLECULE
*****
 38 41 0 0 0
SMALL
GASTEIGER

@<TRIPOS>ATOM
      1 C         142.2014  139.4999  162.7385 C.ar    1  UNL1        0.1200
      2 N         142.9155  140.0225  161.5273 N.ar    1  UNL1       -0.2309
      3 C         142.5876  139.1237  160.3721 C.ar    1  UNL1        0.0997
      4 C         141.6708  138.0455  160.8693 C.ar    1  UNL1        0.0961
      5 N         141.4322  138.2780  162.3318 N.ar    1  UNL1       -0.3123
      6 C         143.0885  139.2762  158.9664 C.ar    1  UNL1        0.0193
      7 C         143.8518  140.5056  158.5715 C.ar    1  UNL1        0.0038
      8 C         144.3527  140.6582  157.1659 C.ar    1  UNL1        0.0296
      9 C         144.0903  139.5813  156.1551 C.ar    1  UNL1        0.1440
     10 F         144.5911  139.7338  154.7495 F       1  UNL1       -0.2042
     11 C         143.3270  138.3519  156.5501 C.ar    1  UNL1        0.0988
     12 C         142.8261  138.1994  157.9558 C.ar    1  UNL1        0.0077
     13 C         143.0646  137.2750  155.5394 C.3     1  UNL1        0.4207
     14 F         142.8022  136.1982  154.5287 F       1  UNL1       -0.1658
     15 F         144.4950  136.8344  155.6375 F       1  UNL1       -0.1658
     16 F         141.6341  137.7157  155.4413 F       1  UNL1       -0.1658
     17 N         142.3422  141.2843  166.8672 N.pl3   1  UNL1       -0.2934
     18 C         141.9414  142.1326  165.6968 C.3     1  UNL1        0.0926
     19 C         141.8945  141.5378  164.3206 C.3     1  UNL1        0.0290
     20 C         142.2483  140.0947  164.1147 C.3     1  UNL1        0.0603
     21 C         142.6491  139.2464  165.2851 C.3     1  UNL1        0.0290
     22 C         142.6961  139.8413  166.6614 C.3     1  UNL1        0.0926
     23 C         141.1388  141.9613  169.0680 C.ar    1  UNL1        0.0406
     24 C         141.1858  142.5562  170.4442 C.ar    1  UNL1        0.1258
     25 N         139.9355  142.6383  171.2688 N.pl3   1  UNL1       -0.3428
     26 N         142.4830  143.0689  170.9958 N.ar    1  UNL1       -0.2097
     27 C         143.7333  142.9868  170.1712 C.ar    1  UNL1        0.2012
     28 N         143.6864  142.3919  168.7950 N.ar    1  UNL1       -0.2092
     29 C         142.3891  141.8792  168.2434 C.ar    1  UNL1        0.1320
     30 H         139.0840  142.3018  170.9068 H       1  UNL1        0.1437
     31 H         139.9663  143.0288  172.1721 H       1  UNL1        0.1437
     32 C         139.4824  140.0002  168.6680 C.3     1  UNL1        0.0052
     33 C         139.8416  141.4486  168.5164 C.3     1  UNL1        0.0320
     34 C         140.5748  137.4365  163.2300 C.3     1  UNL1        0.1245
     35 C         139.0892  137.6418  163.2569 C.3     1  UNL1        0.0970
     36 N         138.4979  138.9130  162.7235 N.3     1  UNL1       -0.2687
     37 C         138.4616  140.1417  163.5830 C.3     1  UNL1        0.0897
     38 C         137.9430  138.9553  161.3305 C.3     1  UNL1        0.0897
@<TRIPOS>BOND
     1    32    33    1
     2    33    23    1
     3    23    24   ar
     4    24    25    1
     5    24    26   ar
     6    26    27   ar
     7    27    28   ar
     8    28    29   ar
     9    29    17    1
    10    17    18    1
    11    18    19    1
    12    19    20    1
    13    20     1    1
    14     1     2   ar
    15     2     3   ar
    16     3     6    1
    17     6     7   ar
    18     7     8   ar
    19     8     9   ar
    20     9    10    1
    21     9    11   ar
    22    11    13    1
    23    13    14    1
    24    13    15    1
    25    13    16    1
    26    11    12   ar
    27     3     4   ar
    28     4     5   ar
    29     5    34    1
    30    34    35    1
    31    35    36    1
    32    36    37    1
    33    36    38    1
    34    20    21    1
    35    21    22    1
    36    29    23   ar
    37    22    17    1
    38     5     1   ar
    39    12     6   ar
    40    25    30    1
    41    25    31    1
