@<TRIPOS>MOLECULE
*****
 29 32 0 0 0
SMALL
GASTEIGER

@<TRIPOS>ATOM
      1 C         137.3439  138.0116  167.3379 C.3     1  UNL1        0.0420
      2 C         138.2588  139.0938  166.8460 C.3     1  UNL1        0.1912
      3 O         138.3219  139.4146  165.3820 O.3     1  UNL1       -0.3500
      4 C         139.2367  140.4968  164.8901 C.3     1  UNL1        0.1145
      5 C         140.1515  141.5790  164.3982 C.3     1  UNL1        0.0463
      6 C         140.2146  141.8998  162.9343 C.3     1  UNL1        0.0746
      7 N         139.3629  141.1384  161.9623 N.3     1  UNL1       -0.2722
      8 C         138.4481  140.0562  162.4542 C.3     1  UNL1        0.0746
      9 C         138.3850  139.7354  163.9181 C.3     1  UNL1        0.0463
     10 C         140.0884  141.2582  165.8622 C.3     1  UNL1        0.1254
     11 N         140.0253  140.9374  167.3261 N.am    1  UNL1       -0.2543
     12 C         139.1105  139.8552  167.8180 C.2     1  UNL1        0.2566
     13 O         139.0473  139.5344  169.2820 O.2     1  UNL1       -0.2719
     14 C         140.8770  141.6988  168.2982 C.ar    1  UNL1        0.0540
     15 C         142.2857  141.2587  168.5660 C.ar    1  UNL1        0.0149
     16 C         143.1374  142.0201  169.5380 C.ar    1  UNL1        0.0013
     17 C         142.5804  143.2216  170.2423 C.ar    1  UNL1        0.0001
     18 C         141.1716  143.6618  169.9745 C.ar    1  UNL1        0.0013
     19 C         140.3199  142.9004  169.0024 C.ar    1  UNL1        0.0149
     20 C         139.4261  141.4592  160.4983 C.3     1  UNL1        0.0768
     21 C         140.4139  140.7531  159.6177 C.3     1  UNL1        0.0437
     22 C         141.5710  140.0184  160.2272 C.ar    1  UNL1       -0.0201
     23 C         141.6814  138.5308  160.0703 C.ar    1  UNL1       -0.0042
     24 C         142.8385  137.7962  160.6798 C.ar    1  UNL1        0.0004
     25 C         143.8851  138.5493  161.4463 C.ar    1  UNL1        0.0103
     26 C         143.7747  140.0369  161.6032 C.ar    1  UNL1        0.0681
     27 C         142.6176  140.7715  160.9937 C.ar    1  UNL1        0.0061
     28 C         144.8213  140.7900  162.3697 C.1     1  UNL1        0.1004
     29 N         145.8680  141.5430  163.1361 N.1     1  UNL1       -0.1908
@<TRIPOS>BOND
     1     1     2    1
     2     2     3    1
     3     3     4    1
     4     4     5    1
     5     5     6    1
     6     6     7    1
     7     7    20    1
     8    20    21    1
     9    21    22    1
    10    22    23   ar
    11    23    24   ar
    12    24    25   ar
    13    25    26   ar
    14    26    28    1
    15    28    29    3
    16    26    27   ar
    17     7     8    1
    18     8     9    1
    19     4    10    1
    20    10    11    1
    21    11    14    1
    22    14    15   ar
    23    15    16   ar
    24    16    17   ar
    25    17    18   ar
    26    18    19   ar
    27    11    12   am
    28    12    13    2
    29    12     2    1
    30     9     4    1
    31    19    14   ar
    32    27    22   ar
@<TRIPOS>MOLECULE
*****
 29 32 0 0 0
SMALL
GASTEIGER

@<TRIPOS>ATOM
      1 C         143.8429  138.0170  166.3153 C.3     1  UNL1        0.0420
      2 C         142.5400  138.7575  166.2516 C.3     1  UNL1        0.1912
      3 O         141.6464  138.6017  165.0570 O.3     1  UNL1       -0.3500
      4 C         140.3434  139.3423  164.9933 C.3     1  UNL1        0.1145
      5 C         139.0405  140.0828  164.9296 C.3     1  UNL1        0.0463
      6 C         138.1470  139.9270  163.7350 C.3     1  UNL1        0.0746
      7 N         138.5562  139.0307  162.6040 N.3     1  UNL1       -0.2722
      8 C         139.8591  138.2902  162.6677 C.3     1  UNL1        0.0746
      9 C         140.7527  138.4460  163.8623 C.3     1  UNL1        0.0463
     10 C         139.9341  140.2386  166.1243 C.3     1  UNL1        0.1254
     11 N         140.8278  140.3944  167.3189 N.am    1  UNL1       -0.2543
     12 C         142.1307  139.6539  167.3826 C.2     1  UNL1        0.2566
     13 O         143.0244  139.8096  168.5772 O.2     1  UNL1       -0.2719
     14 C         140.4185  141.2907  168.4499 C.ar    1  UNL1        0.0540
     15 C         139.6067  140.7421  169.5856 C.ar    1  UNL1        0.0149
     16 C         139.1974  141.6384  170.7166 C.ar    1  UNL1        0.0013
     17 C         139.6000  143.0833  170.7119 C.ar    1  UNL1        0.0001
     18 C         140.4119  143.6320  169.5761 C.ar    1  UNL1        0.0013
     19 C         140.8212  142.7357  168.4451 C.ar    1  UNL1        0.0149
     20 C         137.6626  138.8749  161.4094 C.3     1  UNL1        0.0768
     21 C         137.7123  139.8822  160.2991 C.3     1  UNL1        0.0437
     22 C         138.8348  140.8754  160.2372 C.ar    1  UNL1       -0.0201
     23 C         140.1357  140.4977  159.5932 C.ar    1  UNL1       -0.0042
     24 C         141.2581  141.4909  159.5313 C.ar    1  UNL1        0.0004
     25 C         141.0795  142.8617  160.1134 C.ar    1  UNL1        0.0103
     26 C         139.7786  143.2394  160.7574 C.ar    1  UNL1        0.0681
     27 C         138.6562  142.2463  160.8193 C.ar    1  UNL1        0.0061
     28 C         139.6000  144.6103  161.3396 C.1     1  UNL1        0.1004
     29 N         139.4214  145.9811  161.9217 N.1     1  UNL1       -0.1908
@<TRIPOS>BOND
     1     1     2    1
     2     2     3    1
     3     3     4    1
     4     4     5    1
     5     5     6    1
     6     6     7    1
     7     7    20    1
     8    20    21    1
     9    21    22    1
    10    22    23   ar
    11    23    24   ar
    12    24    25   ar
    13    25    26   ar
    14    26    28    1
    15    28    29    3
    16    26    27   ar
    17     7     8    1
    18     8     9    1
    19     4    10    1
    20    10    11    1
    21    11    14    1
    22    14    15   ar
    23    15    16   ar
    24    16    17   ar
    25    17    18   ar
    26    18    19   ar
    27    11    12   am
    28    12    13    2
    29    12     2    1
    30     9     4    1
    31    19    14   ar
    32    27    22   ar
@<TRIPOS>MOLECULE
*****
 29 32 0 0 0
SMALL
GASTEIGER

@<TRIPOS>ATOM
      1 C         138.4321  139.1484  165.0028 C.3     1  UNL1        0.0420
      2 C         139.1856  140.4385  165.1372 C.3     1  UNL1        0.1912
      3 O         139.2451  141.3960  163.9842 O.3     1  UNL1       -0.3500
      4 C         139.9987  142.6860  164.1186 C.3     1  UNL1        0.1145
      5 C         140.7522  143.9760  164.2531 C.3     1  UNL1        0.0463
      6 C         140.8117  144.9335  163.1001 C.3     1  UNL1        0.0746
      7 N         140.1177  144.6010  161.8125 N.3     1  UNL1       -0.2722
      8 C         139.3641  143.3111  161.6780 C.3     1  UNL1        0.0746
      9 C         139.3046  142.3536  162.8311 C.3     1  UNL1        0.0463
     10 C         140.6927  143.0185  165.4062 C.3     1  UNL1        0.1254
     11 N         140.6331  142.0609  166.5593 N.am    1  UNL1       -0.2543
     12 C         139.8796  140.7709  166.4248 C.2     1  UNL1        0.2566
     13 O         139.8201  139.8133  167.5779 O.2     1  UNL1       -0.2719
     14 C         141.3271  142.3934  167.8469 C.ar    1  UNL1        0.0540
     15 C         142.7478  141.9647  168.0655 C.ar    1  UNL1        0.0149
     16 C         143.4418  142.2972  169.3531 C.ar    1  UNL1        0.0013
     17 C         142.7152  143.0583  170.4220 C.ar    1  UNL1        0.0001
     18 C         141.2944  143.4870  170.2034 C.ar    1  UNL1        0.0013
     19 C         140.6004  143.1545  168.9158 C.ar    1  UNL1        0.0149
     20 C         140.1772  145.5586  160.6594 C.3     1  UNL1        0.0768
     21 C         140.9850  145.2178  159.4424 C.3     1  UNL1        0.0437
     22 C         140.3225  145.1454  158.0985 C.ar    1  UNL1       -0.0201
     23 C         139.6024  143.8967  157.6836 C.ar    1  UNL1       -0.0042
     24 C         138.9400  143.8244  156.3398 C.ar    1  UNL1        0.0004
     25 C         138.9976  145.0008  155.4109 C.ar    1  UNL1        0.0103
     26 C         139.7176  146.2495  155.8258 C.ar    1  UNL1        0.0681
     27 C         140.3801  146.3218  157.1697 C.ar    1  UNL1        0.0061
     28 C         139.7753  147.4259  154.8970 C.1     1  UNL1        0.1004
     29 N         139.8329  148.6022  153.9681 N.1     1  UNL1       -0.1908
@<TRIPOS>BOND
     1     1     2    1
     2     2     3    1
     3     3     4    1
     4     4     5    1
     5     5     6    1
     6     6     7    1
     7     7    20    1
     8    20    21    1
     9    21    22    1
    10    22    23   ar
    11    23    24   ar
    12    24    25   ar
    13    25    26   ar
    14    26    28    1
    15    28    29    3
    16    26    27   ar
    17     7     8    1
    18     8     9    1
    19     4    10    1
    20    10    11    1
    21    11    14    1
    22    14    15   ar
    23    15    16   ar
    24    16    17   ar
    25    17    18   ar
    26    18    19   ar
    27    11    12   am
    28    12    13    2
    29    12     2    1
    30     9     4    1
    31    19    14   ar
    32    27    22   ar
@<TRIPOS>MOLECULE
*****
 29 32 0 0 0
SMALL
GASTEIGER

@<TRIPOS>ATOM
      1 C         137.5528  138.1623  166.9660 C.3     1  UNL1        0.0420
      2 C         138.3694  139.3631  166.5901 C.3     1  UNL1        0.1912
      3 O         138.3038  139.9076  165.1939 O.3     1  UNL1       -0.3500
      4 C         139.1204  141.1084  164.8180 C.3     1  UNL1        0.1145
      5 C         139.9370  142.3092  164.4422 C.3     1  UNL1        0.0463
      6 C         139.8713  142.8536  163.0461 C.3     1  UNL1        0.0746
      7 N         138.9890  142.1974  162.0258 N.3     1  UNL1       -0.2722
      8 C         138.1725  140.9966  162.4016 C.3     1  UNL1        0.0746
      9 C         138.2381  140.4521  163.7978 C.3     1  UNL1        0.0463
     10 C         140.0026  141.7647  165.8383 C.3     1  UNL1        0.1254
     11 N         140.0682  141.2201  167.2345 N.am    1  UNL1       -0.2543
     12 C         139.2517  140.0194  167.6103 C.2     1  UNL1        0.2566
     13 O         139.3173  139.4748  169.0065 O.2     1  UNL1       -0.2719
     14 C         140.9505  141.8764  168.2547 C.ar    1  UNL1        0.0540
     15 C         142.3653  141.4113  168.4331 C.ar    1  UNL1        0.0149
     16 C         143.2476  142.0676  169.4534 C.ar    1  UNL1        0.0013
     17 C         142.7150  143.1890  170.2953 C.ar    1  UNL1        0.0001
     18 C         141.3001  143.6541  170.1169 C.ar    1  UNL1        0.0013
     19 C         140.4178  142.9978  169.0967 C.ar    1  UNL1        0.0149
     20 C         138.9234  142.7419  160.6296 C.3     1  UNL1        0.0768
     21 C         139.6416  142.0391  159.5160 C.3     1  UNL1        0.0437
     22 C         141.1040  142.2870  159.2924 C.ar    1  UNL1       -0.0201
     23 C         141.5845  142.7940  157.9650 C.ar    1  UNL1       -0.0042
     24 C         143.0468  143.0418  157.7415 C.ar    1  UNL1        0.0004
     25 C         144.0288  142.7827  158.8454 C.ar    1  UNL1        0.0103
     26 C         143.5483  142.2757  160.1729 C.ar    1  UNL1        0.0681
     27 C         142.0860  142.0279  160.3963 C.ar    1  UNL1        0.0061
     28 C         144.5303  142.0166  161.2768 C.1     1  UNL1        0.1004
     29 N         145.5122  141.7575  162.3807 N.1     1  UNL1       -0.1908
@<TRIPOS>BOND
     1     1     2    1
     2     2     3    1
     3     3     4    1
     4     4     5    1
     5     5     6    1
     6     6     7    1
     7     7    20    1
     8    20    21    1
     9    21    22    1
    10    22    23   ar
    11    23    24   ar
    12    24    25   ar
    13    25    26   ar
    14    26    28    1
    15    28    29    3
    16    26    27   ar
    17     7     8    1
    18     8     9    1
    19     4    10    1
    20    10    11    1
    21    11    14    1
    22    14    15   ar
    23    15    16   ar
    24    16    17   ar
    25    17    18   ar
    26    18    19   ar
    27    11    12   am
    28    12    13    2
    29    12     2    1
    30     9     4    1
    31    19    14   ar
    32    27    22   ar
@<TRIPOS>MOLECULE
*****
 29 32 0 0 0
SMALL
GASTEIGER

@<TRIPOS>ATOM
      1 C         137.3479  138.1147  167.2347 C.3     1  UNL1        0.0420
      2 C         138.5260  138.9298  166.7899 C.3     1  UNL1        0.1912
      3 O         138.9496  138.9127  165.3511 O.3     1  UNL1       -0.3500
      4 C         140.1277  139.7279  164.9064 C.3     1  UNL1        0.1145
      5 C         141.3057  140.5430  164.4617 C.3     1  UNL1        0.0463
      6 C         141.7294  140.5259  163.0229 C.3     1  UNL1        0.0746
      7 N         140.9750  139.6937  162.0288 N.3     1  UNL1       -0.2722
      8 C         139.7970  138.8785  162.4735 C.3     1  UNL1        0.0746
      9 C         139.3733  138.8957  163.9123 C.3     1  UNL1        0.0463
     10 C         140.8821  140.5601  165.9005 C.3     1  UNL1        0.1254
     11 N         140.4584  140.5772  167.3394 N.am    1  UNL1       -0.2543
     12 C         139.2804  139.7621  167.7840 C.2     1  UNL1        0.2566
     13 O         138.8567  139.7792  169.2229 O.2     1  UNL1       -0.2719
     14 C         141.2128  141.4095  168.3335 C.ar    1  UNL1        0.0540
     15 C         142.5949  141.0061  168.7540 C.ar    1  UNL1        0.0149
     16 C         143.3493  141.8384  169.7481 C.ar    1  UNL1        0.0013
     17 C         142.7215  143.0740  170.3217 C.ar    1  UNL1        0.0001
     18 C         141.3393  143.4774  169.9013 C.ar    1  UNL1        0.0013
     19 C         140.5849  142.6451  168.9071 C.ar    1  UNL1        0.0149
     20 C         141.3987  139.6766  160.5899 C.3     1  UNL1        0.0768
     21 C         140.6423  140.4823  159.5757 C.3     1  UNL1        0.0437
     22 C         141.0213  141.9107  159.3185 C.ar    1  UNL1       -0.0201
     23 C         142.0280  142.2399  158.2564 C.ar    1  UNL1       -0.0042
     24 C         142.4070  143.6683  157.9992 C.ar    1  UNL1        0.0004
     25 C         141.7792  144.7674  158.8042 C.ar    1  UNL1        0.0103
     26 C         140.7726  144.4381  159.8663 C.ar    1  UNL1        0.0681
     27 C         140.3936  143.0098  160.1235 C.ar    1  UNL1        0.0061
     28 C         140.1449  145.5372  160.6713 C.1     1  UNL1        0.1004
     29 N         139.5171  146.6364  161.4762 N.1     1  UNL1       -0.1908
@<TRIPOS>BOND
     1     1     2    1
     2     2     3    1
     3     3     4    1
     4     4     5    1
     5     5     6    1
     6     6     7    1
     7     7    20    1
     8    20    21    1
     9    21    22    1
    10    22    23   ar
    11    23    24   ar
    12    24    25   ar
    13    25    26   ar
    14    26    28    1
    15    28    29    3
    16    26    27   ar
    17     7     8    1
    18     8     9    1
    19     4    10    1
    20    10    11    1
    21    11    14    1
    22    14    15   ar
    23    15    16   ar
    24    16    17   ar
    25    17    18   ar
    26    18    19   ar
    27    11    12   am
    28    12    13    2
    29    12     2    1
    30     9     4    1
    31    19    14   ar
    32    27    22   ar
@<TRIPOS>MOLECULE
*****
 29 32 0 0 0
SMALL
GASTEIGER

@<TRIPOS>ATOM
      1 C         138.0474  139.2883  165.4105 C.3     1  UNL1        0.0420
      2 C         138.9264  140.5034  165.4413 C.3     1  UNL1        0.1912
      3 O         139.0478  141.3723  164.2247 O.3     1  UNL1       -0.3500
      4 C         139.9268  142.5875  164.2556 C.3     1  UNL1        0.1145
      5 C         140.8058  143.8025  164.2865 C.3     1  UNL1        0.0463
      6 C         140.9272  144.6714  163.0699 C.3     1  UNL1        0.0746
      7 N         140.1697  144.3253  161.8224 N.3     1  UNL1       -0.2722
      8 C         139.2907  143.1102  161.7915 C.3     1  UNL1        0.0746
      9 C         139.1693  142.2413  163.0081 C.3     1  UNL1        0.0463
     10 C         140.6844  142.9336  165.5031 C.3     1  UNL1        0.1254
     11 N         140.5629  142.0646  166.7198 N.am    1  UNL1       -0.2543
     12 C         139.6839  140.8495  166.6889 C.2     1  UNL1        0.2566
     13 O         139.5625  139.9805  167.9055 O.2     1  UNL1       -0.2719
     14 C         141.3204  142.4107  167.9673 C.ar    1  UNL1        0.0540
     15 C         140.6460  143.1778  169.0658 C.ar    1  UNL1        0.0149
     16 C         141.4036  143.5239  170.3133 C.ar    1  UNL1        0.0013
     17 C         142.8355  143.1030  170.4624 C.ar    1  UNL1        0.0001
     18 C         143.5100  142.3359  169.3638 C.ar    1  UNL1        0.0013
     19 C         142.7525  141.9898  168.1163 C.ar    1  UNL1        0.0149
     20 C         140.2912  145.1943  160.6057 C.3     1  UNL1        0.0768
     21 C         140.6353  144.5840  159.2795 C.3     1  UNL1        0.0437
     22 C         141.9457  143.8770  159.0965 C.ar    1  UNL1       -0.0201
     23 C         142.4842  143.6410  157.7166 C.ar    1  UNL1       -0.0042
     24 C         143.7945  142.9341  157.5338 C.ar    1  UNL1        0.0004
     25 C         144.5662  142.4633  158.7308 C.ar    1  UNL1        0.0103
     26 C         144.0276  142.6993  160.1107 C.ar    1  UNL1        0.0681
     27 C         142.7173  143.4062  160.2936 C.ar    1  UNL1        0.0061
     28 C         144.7992  142.2285  161.3077 C.1     1  UNL1        0.1004
     29 N         145.5709  141.7577  162.5047 N.1     1  UNL1       -0.1908
@<TRIPOS>BOND
     1     1     2    1
     2     2     3    1
     3     3     4    1
     4     4     5    1
     5     5     6    1
     6     6     7    1
     7     7    20    1
     8    20    21    1
     9    21    22    1
    10    22    23   ar
    11    23    24   ar
    12    24    25   ar
    13    25    26   ar
    14    26    28    1
    15    28    29    3
    16    26    27   ar
    17     7     8    1
    18     8     9    1
    19     4    10    1
    20    10    11    1
    21    11    14    1
    22    14    15   ar
    23    15    16   ar
    24    16    17   ar
    25    17    18   ar
    26    18    19   ar
    27    11    12   am
    28    12    13    2
    29    12     2    1
    30     9     4    1
    31    19    14   ar
    32    27    22   ar
@<TRIPOS>MOLECULE
*****
 29 32 0 0 0
SMALL
GASTEIGER

@<TRIPOS>ATOM
      1 C         139.6653  146.4685  161.6888 C.3     1  UNL1        0.0420
      2 C         140.0345  145.0157  161.6335 C.3     1  UNL1        0.1912
      3 O         139.4523  144.0555  162.6280 O.3     1  UNL1       -0.3500
      4 C         139.8215  142.6026  162.5726 C.3     1  UNL1        0.1145
      5 C         140.1907  141.1499  162.5172 C.3     1  UNL1        0.0463
      6 C         139.6085  140.1897  163.5117 C.3     1  UNL1        0.0746
      7 N         138.6570  140.6822  164.5615 N.3     1  UNL1       -0.2722
      8 C         138.2878  142.1350  164.6169 C.3     1  UNL1        0.0746
      9 C         138.8701  143.0952  163.6224 C.3     1  UNL1        0.0463
     10 C         140.7730  142.1101  161.5228 C.3     1  UNL1        0.1254
     11 N         141.3552  143.0704  160.5283 N.am    1  UNL1       -0.2543
     12 C         140.9860  144.5231  160.5837 C.2     1  UNL1        0.2566
     13 O         141.5682  145.4834  159.5892 O.2     1  UNL1       -0.2719
     14 C         142.3067  142.5778  159.4785 C.ar    1  UNL1        0.0540
     15 C         143.7803  142.8110  159.6330 C.ar    1  UNL1        0.0149
     16 C         144.7318  142.3185  158.5832 C.ar    1  UNL1        0.0013
     17 C         144.2096  141.5926  157.3789 C.ar    1  UNL1        0.0001
     18 C         142.7358  141.3594  157.2243 C.ar    1  UNL1        0.0013
     19 C         141.7844  141.8519  158.2741 C.ar    1  UNL1        0.0149
     20 C         138.0748  139.7220  165.5560 C.3     1  UNL1        0.0768
     21 C         138.9797  138.9317  166.4540 C.3     1  UNL1        0.0437
     22 C         140.0931  139.6179  167.1886 C.ar    1  UNL1       -0.0201
     23 C         141.4656  139.6755  166.5862 C.ar    1  UNL1       -0.0042
     24 C         142.5789  140.3616  167.3208 C.ar    1  UNL1        0.0004
     25 C         142.3197  140.9901  168.6579 C.ar    1  UNL1        0.0103
     26 C         140.9473  140.9325  169.2604 C.ar    1  UNL1        0.0681
     27 C         139.8340  140.2463  168.5257 C.ar    1  UNL1        0.0061
     28 C         140.6882  141.5609  170.5975 C.1     1  UNL1        0.1004
     29 N         140.4290  142.1894  171.9346 N.1     1  UNL1       -0.1908
@<TRIPOS>BOND
     1     1     2    1
     2     2     3    1
     3     3     4    1
     4     4     5    1
     5     5     6    1
     6     6     7    1
     7     7    20    1
     8    20    21    1
     9    21    22    1
    10    22    23   ar
    11    23    24   ar
    12    24    25   ar
    13    25    26   ar
    14    26    28    1
    15    28    29    3
    16    26    27   ar
    17     7     8    1
    18     8     9    1
    19     4    10    1
    20    10    11    1
    21    11    14    1
    22    14    15   ar
    23    15    16   ar
    24    16    17   ar
    25    17    18   ar
    26    18    19   ar
    27    11    12   am
    28    12    13    2
    29    12     2    1
    30     9     4    1
    31    19    14   ar
    32    27    22   ar
@<TRIPOS>MOLECULE
*****
 29 32 0 0 0
SMALL
GASTEIGER

@<TRIPOS>ATOM
      1 C         137.7623  142.1535  157.8460 C.3     1  UNL1        0.0420
      2 C         138.3856  140.9201  158.4294 C.3     1  UNL1        0.1912
      3 O         138.2497  140.6326  159.8953 O.3     1  UNL1       -0.3500
      4 C         138.8730  139.3992  160.4787 C.3     1  UNL1        0.1145
      5 C         139.4963  138.1659  161.0620 C.3     1  UNL1        0.0463
      6 C         139.3604  137.8784  162.5279 C.3     1  UNL1        0.0746
      7 N         138.6012  138.8243  163.4104 N.3     1  UNL1       -0.2722
      8 C         137.9779  140.0576  162.8271 C.3     1  UNL1        0.0746
      9 C         138.1138  140.3451  161.3612 C.3     1  UNL1        0.0463
     10 C         139.6322  138.4534  159.5961 C.3     1  UNL1        0.1254
     11 N         139.7681  138.7409  158.1302 N.am    1  UNL1       -0.2543
     12 C         139.1448  139.9742  157.5469 C.2     1  UNL1        0.2566
     13 O         139.2807  140.2618  156.0809 O.2     1  UNL1       -0.2719
     14 C         140.5274  137.7950  157.2476 C.ar    1  UNL1        0.0540
     15 C         142.0004  137.5984  157.4508 C.ar    1  UNL1        0.0149
     16 C         142.7597  136.6526  156.5682 C.ar    1  UNL1        0.0013
     17 C         142.0458  135.9033  155.4825 C.ar    1  UNL1        0.0001
     18 C         140.5726  136.0999  155.2792 C.ar    1  UNL1        0.0013
     19 C         139.8134  137.0457  156.1618 C.ar    1  UNL1        0.0149
     20 C         138.4653  138.5367  164.8764 C.3     1  UNL1        0.0768
     21 C         138.6118  139.6463  165.8750 C.3     1  UNL1        0.0437
     22 C         139.8328  139.7175  166.7434 C.ar    1  UNL1       -0.0201
     23 C         141.1743  139.3484  166.1829 C.ar    1  UNL1       -0.0042
     24 C         142.3953  139.4196  167.0513 C.ar    1  UNL1        0.0004
     25 C         142.2748  139.8599  168.4802 C.ar    1  UNL1        0.0103
     26 C         140.9333  140.2290  169.0406 C.ar    1  UNL1        0.0681
     27 C         139.7123  140.1578  168.1723 C.ar    1  UNL1        0.0061
     28 C         140.8128  140.6693  170.4695 C.1     1  UNL1        0.1004
     29 N         140.6923  141.1096  171.8984 N.1     1  UNL1       -0.1908
@<TRIPOS>BOND
     1     1     2    1
     2     2     3    1
     3     3     4    1
     4     4     5    1
     5     5     6    1
     6     6     7    1
     7     7    20    1
     8    20    21    1
     9    21    22    1
    10    22    23   ar
    11    23    24   ar
    12    24    25   ar
    13    25    26   ar
    14    26    28    1
    15    28    29    3
    16    26    27   ar
    17     7     8    1
    18     8     9    1
    19     4    10    1
    20    10    11    1
    21    11    14    1
    22    14    15   ar
    23    15    16   ar
    24    16    17   ar
    25    17    18   ar
    26    18    19   ar
    27    11    12   am
    28    12    13    2
    29    12     2    1
    30     9     4    1
    31    19    14   ar
    32    27    22   ar
@<TRIPOS>MOLECULE
*****
 29 32 0 0 0
SMALL
GASTEIGER

@<TRIPOS>ATOM
      1 C         144.7383  141.9383  157.4794 C.3     1  UNL1        0.0420
      2 C         144.1244  140.7243  158.1113 C.3     1  UNL1        0.1912
      3 O         144.1121  140.5810  159.6043 O.3     1  UNL1       -0.3500
      4 C         143.4982  139.3669  160.2363 C.3     1  UNL1        0.1145
      5 C         142.8843  138.1529  160.8681 C.3     1  UNL1        0.0463
      6 C         142.8720  138.0096  162.3612 C.3     1  UNL1        0.0746
      7 N         143.4737  139.0803  163.2224 N.3     1  UNL1       -0.2722
      8 C         144.0876  140.2943  162.5905 C.3     1  UNL1        0.0746
      9 C         144.0999  140.4376  161.0975 C.3     1  UNL1        0.0463
     10 C         142.8965  138.2962  159.3751 C.3     1  UNL1        0.1254
     11 N         142.9088  138.4396  157.8820 N.am    1  UNL1       -0.2543
     12 C         143.5227  139.6536  157.2501 C.2     1  UNL1        0.2566
     13 O         143.5350  139.7970  155.7570 O.2     1  UNL1       -0.2719
     14 C         142.3071  137.3689  157.0208 C.ar    1  UNL1        0.0540
     15 C         143.0481  136.0848  156.7933 C.ar    1  UNL1        0.0149
     16 C         142.4465  135.0141  155.9321 C.ar    1  UNL1        0.0013
     17 C         141.1038  135.2276  155.2984 C.ar    1  UNL1        0.0001
     18 C         140.3627  136.5118  155.5258 C.ar    1  UNL1        0.0013
     19 C         140.9644  137.5825  156.3870 C.ar    1  UNL1        0.0149
     20 C         143.4614  138.9369  164.7155 C.3     1  UNL1        0.0768
     21 C         142.6473  139.8783  165.5527 C.3     1  UNL1        0.0437
     22 C         141.1707  140.0036  165.3198 C.ar    1  UNL1       -0.0201
     23 C         140.6559  140.9083  164.2398 C.ar    1  UNL1       -0.0042
     24 C         139.1795  141.0335  164.0069 C.ar    1  UNL1        0.0004
     25 C         138.2178  140.2540  164.8540 C.ar    1  UNL1        0.0103
     26 C         138.7326  139.3493  165.9340 C.ar    1  UNL1        0.0681
     27 C         140.2091  139.2241  166.1669 C.ar    1  UNL1        0.0061
     28 C         137.7709  138.5698  166.7811 C.1     1  UNL1        0.1004
     29 N         136.8093  137.7903  167.6282 N.1     1  UNL1       -0.1908
@<TRIPOS>BOND
     1     1     2    1
     2     2     3    1
     3     3     4    1
     4     4     5    1
     5     5     6    1
     6     6     7    1
     7     7    20    1
     8    20    21    1
     9    21    22    1
    10    22    23   ar
    11    23    24   ar
    12    24    25   ar
    13    25    26   ar
    14    26    28    1
    15    28    29    3
    16    26    27   ar
    17     7     8    1
    18     8     9    1
    19     4    10    1
    20    10    11    1
    21    11    14    1
    22    14    15   ar
    23    15    16   ar
    24    16    17   ar
    25    17    18   ar
    26    18    19   ar
    27    11    12   am
    28    12    13    2
    29    12     2    1
    30     9     4    1
    31    19    14   ar
    32    27    22   ar
