@<TRIPOS>MOLECULE
*****
 35 39 0 0 0
SMALL
GASTEIGER

@<TRIPOS>ATOM
      1 C         141.4323  143.1789  162.3470 C.ar    1  UNL1        0.1456
      2 N         141.8155  142.8233  160.9411 N.ar    1  UNL1       -0.2281
      3 C         140.7528  142.6306  159.9000 C.ar    1  UNL1        0.0875
      4 C         141.1360  142.2749  158.4941 C.ar    1  UNL1        0.0193
      5 C         140.0735  142.0823  157.4531 C.ar    1  UNL1        0.0015
      6 C         138.6277  142.2452  157.8180 C.ar    1  UNL1        0.0002
      7 C         138.2445  142.6009  159.2239 C.ar    1  UNL1        0.0063
      8 C         139.3071  142.7935  160.2649 C.ar    1  UNL1        0.0739
      9 C         138.9239  143.1492  161.6709 C.ar    1  UNL1        0.2633
     10 O         137.4781  143.3121  162.0358 O.2     1  UNL1       -0.2669
     11 N         139.9865  143.3418  162.7119 N.ar    1  UNL1       -0.2806
     12 C         142.5481  140.8082  163.8081 C.3     1  UNL1        0.0311
     13 C         143.0528  142.1862  164.1187 C.ar    1  UNL1       -0.0189
     14 C         144.1153  142.3788  165.1597 C.ar    1  UNL1       -0.0042
     15 C         144.6200  143.7568  165.4703 C.ar    1  UNL1       -0.0003
     16 C         144.0621  144.9422  164.7397 C.ar    1  UNL1        0.0001
     17 C         142.9995  144.7495  163.6987 C.ar    1  UNL1        0.0027
     18 C         142.4949  143.3716  163.3881 C.ar    1  UNL1        0.0303
     19 C         137.5651  142.0525  156.7769 C.ar    1  UNL1        0.0001
     20 C         137.4329  143.0332  155.6496 C.ar    1  UNL1        0.0009
     21 C         136.3703  142.8405  154.6085 C.ar    1  UNL1        0.0114
     22 C         135.4399  141.6671  154.6948 C.ar    1  UNL1        0.0577
     23 CL        134.3773  141.4744  153.6538 Cl      1  UNL1       -0.0822
     24 C         135.5721  140.6864  155.8221 C.ar    1  UNL1        0.0114
     25 C         136.6346  140.8791  156.8631 C.ar    1  UNL1        0.0009
     26 C         139.6033  143.6975  164.1179 C.3     1  UNL1        0.1118
     27 C         139.6957  142.6669  165.2039 C.3     1  UNL1        0.0388
     28 C         140.4171  142.9847  166.4801 C.3     1  UNL1        0.0048
     29 C         140.5095  141.9542  167.5661 C.3     1  UNL1        0.0174
     30 C         139.8804  140.6058  167.3759 C.3     1  UNL1        0.0720
     31 N         139.1589  140.2880  166.0998 N.3     1  UNL1       -0.2739
     32 C         139.0666  141.3186  165.0138 C.3     1  UNL1        0.0739
     33 C         138.5299  138.9396  165.9097 C.3     1  UNL1        0.0576
     34 C         138.8221  138.1434  164.6725 C.3     1  UNL1        0.0173
     35 C         137.6086  138.3874  166.9568 C.3     1  UNL1        0.0173
@<TRIPOS>BOND
     1    12    13    1
     2    13    14   ar
     3    14    15   ar
     4    15    16   ar
     5    16    17   ar
     6    17    18   ar
     7    18     1    1
     8     1     2   ar
     9     2     3   ar
    10     3     4   ar
    11     4     5   ar
    12     5     6   ar
    13     6    19    1
    14    19    20   ar
    15    20    21   ar
    16    21    22   ar
    17    22    23    1
    18    22    24   ar
    19    24    25   ar
    20     6     7   ar
    21     7     8   ar
    22     8     9   ar
    23     9    10    2
    24     9    11   ar
    25    11    26    1
    26    27    26    1
    27    27    28    1
    28    28    29    1
    29    29    30    1
    30    30    31    1
    31    31    33    1
    32    33    34    1
    33    33    35    1
    34    31    32    1
    35    18    13   ar
    36    11     1   ar
    37    32    27    1
    38     8     3   ar
    39    25    19   ar
@<TRIPOS>MOLECULE
*****
 35 39 0 0 0
SMALL
GASTEIGER

@<TRIPOS>ATOM
      1 C         139.6440  141.4645  162.3415 C.ar    1  UNL1        0.1456
      2 N         140.1267  141.8230  160.9673 N.ar    1  UNL1       -0.2281
      3 C         140.4773  140.7408  159.9895 C.ar    1  UNL1        0.0875
      4 C         140.9600  141.0993  158.6153 C.ar    1  UNL1        0.0193
      5 C         141.3106  140.0171  157.6376 C.ar    1  UNL1        0.0015
      6 C         141.1786  138.5765  158.0340 C.ar    1  UNL1        0.0002
      7 C         140.6959  138.2180  159.4083 C.ar    1  UNL1        0.0063
      8 C         140.3453  139.3002  160.3860 C.ar    1  UNL1        0.0739
      9 C         139.8626  138.9417  161.7603 C.ar    1  UNL1        0.2633
     10 O         139.7305  137.5011  162.1567 O.2     1  UNL1       -0.2669
     11 N         139.5120  140.0239  162.7380 N.ar    1  UNL1       -0.2806
     12 C         141.7869  142.7125  164.0298 C.3     1  UNL1        0.0311
     13 C         140.3648  143.1707  164.1635 C.ar    1  UNL1       -0.0189
     14 C         140.0142  144.2528  165.1412 C.ar    1  UNL1       -0.0042
     15 C         138.5922  144.7109  165.2748 C.ar    1  UNL1       -0.0003
     16 C         137.5207  144.0869  164.4307 C.ar    1  UNL1        0.0001
     17 C         137.8713  143.0048  163.4529 C.ar    1  UNL1        0.0027
     18 C         139.2934  142.5467  163.3193 C.ar    1  UNL1        0.0303
     19 C         141.5292  137.4943  157.0562 C.ar    1  UNL1        0.0001
     20 C         142.8762  136.8371  157.1161 C.ar    1  UNL1        0.0009
     21 C         143.2269  135.7550  156.1382 C.ar    1  UNL1        0.0114
     22 C         142.2304  135.3301  155.1007 C.ar    1  UNL1        0.0577
     23 CL        142.5810  134.2480  154.1229 Cl      1  UNL1       -0.0822
     24 C         140.8834  135.9873  155.0409 C.ar    1  UNL1        0.0114
     25 C         140.5328  137.0694  156.0187 C.ar    1  UNL1        0.0009
     26 C         139.0293  139.6655  164.1123 C.3     1  UNL1        0.1118
     27 C         139.9636  139.7548  165.2823 C.3     1  UNL1        0.0388
     28 C         141.3210  139.1207  165.2083 C.3     1  UNL1        0.0048
     29 C         142.2553  139.2100  166.3783 C.3     1  UNL1        0.0174
     30 C         141.8323  139.9334  167.6225 C.3     1  UNL1        0.0720
     31 N         140.4749  140.5674  167.6965 N.3     1  UNL1       -0.2739
     32 C         139.5406  140.4781  166.5264 C.3     1  UNL1        0.0739
     33 C         140.0519  141.2907  168.9406 C.3     1  UNL1        0.0576
     34 C         140.5160  142.6959  169.1857 C.3     1  UNL1        0.0173
     35 C         139.1647  140.6089  169.9396 C.3     1  UNL1        0.0173
@<TRIPOS>BOND
     1    12    13    1
     2    13    14   ar
     3    14    15   ar
     4    15    16   ar
     5    16    17   ar
     6    17    18   ar
     7    18     1    1
     8     1     2   ar
     9     2     3   ar
    10     3     4   ar
    11     4     5   ar
    12     5     6   ar
    13     6    19    1
    14    19    20   ar
    15    20    21   ar
    16    21    22   ar
    17    22    23    1
    18    22    24   ar
    19    24    25   ar
    20     6     7   ar
    21     7     8   ar
    22     8     9   ar
    23     9    10    2
    24     9    11   ar
    25    11    26    1
    26    27    26    1
    27    27    28    1
    28    28    29    1
    29    29    30    1
    30    30    31    1
    31    31    33    1
    32    33    34    1
    33    33    35    1
    34    31    32    1
    35    18    13   ar
    36    11     1   ar
    37    32    27    1
    38     8     3   ar
    39    25    19   ar
@<TRIPOS>MOLECULE
*****
 35 39 0 0 0
SMALL
GASTEIGER

@<TRIPOS>ATOM
      1 C         140.8332  139.2631  163.2262 C.ar    1  UNL1        0.1456
      2 N         140.3423  139.6070  161.8513 N.ar    1  UNL1       -0.2281
      3 C         141.3243  139.8916  160.7536 C.ar    1  UNL1        0.0875
      4 C         140.8333  140.2355  159.3786 C.ar    1  UNL1        0.0193
      5 C         141.8153  140.5202  158.2811 C.ar    1  UNL1        0.0015
      6 C         143.2882  140.4609  158.5585 C.ar    1  UNL1        0.0002
      7 C         143.7792  140.1170  159.9335 C.ar    1  UNL1        0.0063
      8 C         142.7972  139.8324  161.0310 C.ar    1  UNL1        0.0739
      9 C         143.2881  139.4884  162.4061 C.ar    1  UNL1        0.2633
     10 O         144.7611  139.4292  162.6836 O.2     1  UNL1       -0.2669
     11 N         142.3062  139.2038  163.5037 N.ar    1  UNL1       -0.2806
     12 C         139.6587  141.5231  164.8114 C.3     1  UNL1        0.0311
     13 C         139.2640  140.1084  165.1165 C.ar    1  UNL1       -0.0189
     14 C         138.2820  139.8238  166.2140 C.ar    1  UNL1       -0.0042
     15 C         137.8874  138.4092  166.5191 C.ar    1  UNL1       -0.0003
     16 C         138.4747  137.2792  165.7265 C.ar    1  UNL1        0.0001
     17 C         139.4566  137.5638  164.6289 C.ar    1  UNL1        0.0027
     18 C         139.8513  138.9784  164.3239 C.ar    1  UNL1        0.0303
     19 C         144.2702  140.7456  157.4609 C.ar    1  UNL1        0.0001
     20 C         145.2071  141.9112  157.5764 C.ar    1  UNL1        0.0009
     21 C         146.1891  142.1959  156.4787 C.ar    1  UNL1        0.0114
     22 C         146.2341  141.3148  155.2656 C.ar    1  UNL1        0.0577
     23 CL        147.2160  141.5994  154.1680 Cl      1  UNL1       -0.0822
     24 C         145.2971  140.1491  155.1501 C.ar    1  UNL1        0.0114
     25 C         144.3152  139.8645  156.2477 C.ar    1  UNL1        0.0009
     26 C         142.7971  138.8599  164.8788 C.3     1  UNL1        0.1118
     27 C         142.8691  139.9209  165.9366 C.3     1  UNL1        0.0388
     28 C         143.2066  141.3333  165.5605 C.3     1  UNL1        0.0048
     29 C         143.2785  142.3944  166.6183 C.3     1  UNL1        0.0174
     30 C         143.0130  142.0430  168.0522 C.3     1  UNL1        0.0720
     31 N         142.6755  140.6307  168.4283 N.3     1  UNL1       -0.2739
     32 C         142.6035  139.5697  167.3705 C.3     1  UNL1        0.0739
     33 C         142.4099  140.2795  169.8622 C.3     1  UNL1        0.0576
     34 C         142.0151  141.3500  170.8359 C.3     1  UNL1        0.0173
     35 C         142.5392  138.8577  170.3224 C.3     1  UNL1        0.0173
@<TRIPOS>BOND
     1    12    13    1
     2    13    14   ar
     3    14    15   ar
     4    15    16   ar
     5    16    17   ar
     6    17    18   ar
     7    18     1    1
     8     1     2   ar
     9     2     3   ar
    10     3     4   ar
    11     4     5   ar
    12     5     6   ar
    13     6    19    1
    14    19    20   ar
    15    20    21   ar
    16    21    22   ar
    17    22    23    1
    18    22    24   ar
    19    24    25   ar
    20     6     7   ar
    21     7     8   ar
    22     8     9   ar
    23     9    10    2
    24     9    11   ar
    25    11    26    1
    26    27    26    1
    27    27    28    1
    28    28    29    1
    29    29    30    1
    30    30    31    1
    31    31    33    1
    32    33    34    1
    33    33    35    1
    34    31    32    1
    35    18    13   ar
    36    11     1   ar
    37    32    27    1
    38     8     3   ar
    39    25    19   ar
@<TRIPOS>MOLECULE
*****
 35 39 0 0 0
SMALL
GASTEIGER

@<TRIPOS>ATOM
      1 C         140.0992  141.5405  162.1244 C.ar    1  UNL1        0.1456
      2 N         139.6839  141.5840  160.6838 N.ar    1  UNL1       -0.2281
      3 C         140.1132  140.4945  159.7462 C.ar    1  UNL1        0.0875
      4 C         139.6979  140.5380  158.3056 C.ar    1  UNL1        0.0193
      5 C         140.1272  139.4485  157.3681 C.ar    1  UNL1        0.0015
      6 C         140.9717  138.3156  157.8714 C.ar    1  UNL1        0.0002
      7 C         141.3869  138.2721  159.3121 C.ar    1  UNL1        0.0063
      8 C         140.9577  139.3615  160.2495 C.ar    1  UNL1        0.0739
      9 C         141.3729  139.3181  161.6903 C.ar    1  UNL1        0.2633
     10 O         142.2174  138.1851  162.1935 O.2     1  UNL1       -0.2669
     11 N         140.9437  140.4075  162.6277 N.ar    1  UNL1       -0.2806
     12 C         137.3095  141.5572  163.2277 C.3     1  UNL1        0.0311
     13 C         138.2751  142.6383  163.6136 C.ar    1  UNL1       -0.0189
     14 C         137.8458  143.7277  164.5510 C.ar    1  UNL1       -0.0042
     15 C         138.8114  144.8087  164.9369 C.ar    1  UNL1       -0.0003
     16 C         140.2063  144.8004  164.3853 C.ar    1  UNL1        0.0001
     17 C         140.6355  143.7110  163.4478 C.ar    1  UNL1        0.0027
     18 C         139.6699  142.6299  163.0620 C.ar    1  UNL1        0.0303
     19 C         141.4009  137.2261  156.9339 C.ar    1  UNL1        0.0001
     20 C         140.4891  136.7868  155.8269 C.ar    1  UNL1        0.0009
     21 C         140.9183  135.6973  154.8894 C.ar    1  UNL1        0.0114
     22 C         142.2595  135.0472  155.0589 C.ar    1  UNL1        0.0577
     23 CL        142.6887  133.9578  154.1215 Cl      1  UNL1       -0.0822
     24 C         143.1713  135.4866  156.1660 C.ar    1  UNL1        0.0114
     25 C         142.7421  136.5760  157.1034 C.ar    1  UNL1        0.0009
     26 C         141.3589  140.3641  164.0685 C.3     1  UNL1        0.1118
     27 C         140.3827  139.9201  165.1173 C.3     1  UNL1        0.0388
     28 C         139.2539  139.0027  164.7509 C.3     1  UNL1        0.0048
     29 C         138.2777  138.5587  165.7997 C.3     1  UNL1        0.0174
     30 C         138.4303  139.0322  167.2148 C.3     1  UNL1        0.0720
     31 N         139.5591  139.9496  167.5811 N.3     1  UNL1       -0.2739
     32 C         140.5353  140.3936  166.5324 C.3     1  UNL1        0.0739
     33 C         139.7117  140.4231  168.9962 C.3     1  UNL1        0.0576
     34 C         138.5844  140.2502  169.9706 C.3     1  UNL1        0.0173
     35 C         140.9915  141.0694  169.4370 C.3     1  UNL1        0.0173
@<TRIPOS>BOND
     1    12    13    1
     2    13    14   ar
     3    14    15   ar
     4    15    16   ar
     5    16    17   ar
     6    17    18   ar
     7    18     1    1
     8     1     2   ar
     9     2     3   ar
    10     3     4   ar
    11     4     5   ar
    12     5     6   ar
    13     6    19    1
    14    19    20   ar
    15    20    21   ar
    16    21    22   ar
    17    22    23    1
    18    22    24   ar
    19    24    25   ar
    20     6     7   ar
    21     7     8   ar
    22     8     9   ar
    23     9    10    2
    24     9    11   ar
    25    11    26    1
    26    27    26    1
    27    27    28    1
    28    28    29    1
    29    29    30    1
    30    30    31    1
    31    31    33    1
    32    33    34    1
    33    33    35    1
    34    31    32    1
    35    18    13   ar
    36    11     1   ar
    37    32    27    1
    38     8     3   ar
    39    25    19   ar
@<TRIPOS>MOLECULE
*****
 35 39 0 0 0
SMALL
GASTEIGER

@<TRIPOS>ATOM
      1 C         142.8773  141.4411  161.3439 C.ar    1  UNL1        0.1456
      2 N         142.3687  141.4799  159.9333 N.ar    1  UNL1       -0.2281
      3 C         142.3930  140.2376  159.0928 C.ar    1  UNL1        0.0875
      4 C         141.8844  140.2764  157.6822 C.ar    1  UNL1        0.0193
      5 C         141.9087  139.0342  156.8419 C.ar    1  UNL1        0.0015
      6 C         142.4415  137.7532  157.4121 C.ar    1  UNL1        0.0002
      7 C         142.9501  137.7144  158.8227 C.ar    1  UNL1        0.0063
      8 C         142.9258  138.9566  159.6630 C.ar    1  UNL1        0.0739
      9 C         143.4344  138.9179  161.0737 C.ar    1  UNL1        0.2633
     10 O         143.9672  137.6369  161.6439 O.2     1  UNL1       -0.2669
     11 N         143.4101  140.1601  161.9141 N.ar    1  UNL1       -0.2806
     12 C         140.3366  142.2882  162.6956 C.3     1  UNL1        0.0311
     13 C         141.5827  143.1069  162.8602 C.ar    1  UNL1       -0.0189
     14 C         141.5584  144.3491  163.7006 C.ar    1  UNL1       -0.0042
     15 C         142.8044  145.1677  163.8651 C.ar    1  UNL1       -0.0003
     16 C         144.0748  144.7442  163.1893 C.ar    1  UNL1        0.0001
     17 C         144.0991  143.5020  162.3488 C.ar    1  UNL1        0.0027
     18 C         142.8530  142.6834  162.1843 C.ar    1  UNL1        0.0303
     19 C         142.4658  136.5109  156.5716 C.ar    1  UNL1        0.0001
     20 C         143.6893  135.6435  156.5504 C.ar    1  UNL1        0.0009
     21 C         143.7136  134.4013  155.7099 C.ar    1  UNL1        0.0114
     22 C         142.5142  134.0265  154.8907 C.ar    1  UNL1        0.0577
     23 CL        142.5384  132.7843  154.0503 Cl      1  UNL1       -0.0822
     24 C         141.2906  134.8940  154.9120 C.ar    1  UNL1        0.0114
     25 C         141.2664  136.1361  155.7524 C.ar    1  UNL1        0.0009
     26 C         143.9187  140.1214  163.3247 C.3     1  UNL1        0.1118
     27 C         142.9604  140.2520  164.4713 C.3     1  UNL1        0.0388
     28 C         143.2685  141.1866  165.6035 C.3     1  UNL1        0.0048
     29 C         142.3102  141.3173  166.7500 C.3     1  UNL1        0.0174
     30 C         141.0439  140.5133  166.7644 C.3     1  UNL1        0.0720
     31 N         140.7359  139.5788  165.6323 N.3     1  UNL1       -0.2739
     32 C         141.6942  139.4481  164.4858 C.3     1  UNL1        0.0739
     33 C         139.4696  138.7749  165.6468 C.3     1  UNL1        0.0576
     34 C         139.2972  137.6299  164.6932 C.3     1  UNL1        0.0173
     35 C         138.3757  139.1158  166.6150 C.3     1  UNL1        0.0173
@<TRIPOS>BOND
     1    12    13    1
     2    13    14   ar
     3    14    15   ar
     4    15    16   ar
     5    16    17   ar
     6    17    18   ar
     7    18     1    1
     8     1     2   ar
     9     2     3   ar
    10     3     4   ar
    11     4     5   ar
    12     5     6   ar
    13     6    19    1
    14    19    20   ar
    15    20    21   ar
    16    21    22   ar
    17    22    23    1
    18    22    24   ar
    19    24    25   ar
    20     6     7   ar
    21     7     8   ar
    22     8     9   ar
    23     9    10    2
    24     9    11   ar
    25    11    26    1
    26    27    26    1
    27    27    28    1
    28    28    29    1
    29    29    30    1
    30    30    31    1
    31    31    33    1
    32    33    34    1
    33    33    35    1
    34    31    32    1
    35    18    13   ar
    36    11     1   ar
    37    32    27    1
    38     8     3   ar
    39    25    19   ar
@<TRIPOS>MOLECULE
*****
 35 39 0 0 0
SMALL
GASTEIGER

@<TRIPOS>ATOM
      1 C         141.1604  143.0659  161.7698 C.ar    1  UNL1        0.1456
      2 N         141.0065  143.5253  160.3503 N.ar    1  UNL1       -0.2281
      3 C         142.0886  143.2454  159.3499 C.ar    1  UNL1        0.0875
      4 C         141.9348  143.7048  157.9303 C.ar    1  UNL1        0.0193
      5 C         143.0169  143.4249  156.9300 C.ar    1  UNL1        0.0015
      6 C         144.2528  142.6855  157.3493 C.ar    1  UNL1        0.0002
      7 C         144.4067  142.2260  158.7688 C.ar    1  UNL1        0.0063
      8 C         143.3246  142.5060  159.7691 C.ar    1  UNL1        0.0739
      9 C         143.4784  142.0465  161.1888 C.ar    1  UNL1        0.2633
     10 O         144.7143  141.3071  161.6080 O.2     1  UNL1       -0.2669
     11 N         142.3963  142.3264  162.1891 N.ar    1  UNL1       -0.2806
     12 C         141.4296  145.3771  163.6635 C.3     1  UNL1        0.0311
     13 C         140.2129  144.5014  163.7171 C.ar    1  UNL1       -0.0189
     14 C         139.1308  144.7814  164.7174 C.ar    1  UNL1       -0.0042
     15 C         137.9142  143.9057  164.7710 C.ar    1  UNL1       -0.0003
     16 C         137.7795  142.7501  163.8241 C.ar    1  UNL1        0.0001
     17 C         138.8616  142.4702  162.8238 C.ar    1  UNL1        0.0027
     18 C         140.0782  143.3458  162.7702 C.ar    1  UNL1        0.0303
     19 C         145.3350  142.4055  156.3489 C.ar    1  UNL1        0.0001
     20 C         144.9861  142.1991  154.9047 C.ar    1  UNL1        0.0009
     21 C         146.0682  141.9191  153.9043 C.ar    1  UNL1        0.0114
     22 C         147.4992  141.8457  154.3482 C.ar    1  UNL1        0.0577
     23 CL        148.5813  141.5657  153.3479 Cl      1  UNL1       -0.0822
     24 C         147.8480  142.0522  155.7924 C.ar    1  UNL1        0.0114
     25 C         146.7659  142.3321  156.7927 C.ar    1  UNL1        0.0009
     26 C         142.5501  141.8670  163.6087 C.3     1  UNL1        0.1118
     27 C         141.8900  140.5986  164.0622 C.3     1  UNL1        0.0388
     28 C         142.2285  139.2976  163.3967 C.3     1  UNL1        0.0048
     29 C         141.5684  138.0292  163.8502 C.3     1  UNL1        0.0174
     30 C         140.5699  138.0619  164.9691 C.3     1  UNL1        0.0720
     31 N         140.2314  139.3629  165.6345 N.3     1  UNL1       -0.2739
     32 C         140.8915  140.6313  165.1810 C.3     1  UNL1        0.0739
     33 C         139.2329  139.3956  166.7533 C.3     1  UNL1        0.0576
     34 C         137.9037  138.7194  166.5923 C.3     1  UNL1        0.0173
     35 C         139.5636  140.1045  168.0333 C.3     1  UNL1        0.0173
@<TRIPOS>BOND
     1    12    13    1
     2    13    14   ar
     3    14    15   ar
     4    15    16   ar
     5    16    17   ar
     6    17    18   ar
     7    18     1    1
     8     1     2   ar
     9     2     3   ar
    10     3     4   ar
    11     4     5   ar
    12     5     6   ar
    13     6    19    1
    14    19    20   ar
    15    20    21   ar
    16    21    22   ar
    17    22    23    1
    18    22    24   ar
    19    24    25   ar
    20     6     7   ar
    21     7     8   ar
    22     8     9   ar
    23     9    10    2
    24     9    11   ar
    25    11    26    1
    26    27    26    1
    27    27    28    1
    28    28    29    1
    29    29    30    1
    30    30    31    1
    31    31    33    1
    32    33    34    1
    33    33    35    1
    34    31    32    1
    35    18    13   ar
    36    11     1   ar
    37    32    27    1
    38     8     3   ar
    39    25    19   ar
@<TRIPOS>MOLECULE
*****
 35 39 0 0 0
SMALL
GASTEIGER

@<TRIPOS>ATOM
      1 C         139.6697  141.8797  162.2149 C.ar    1  UNL1        0.1456
      2 N         139.4796  141.4504  160.7903 N.ar    1  UNL1       -0.2281
      3 C         139.6148  142.4511  159.6810 C.ar    1  UNL1        0.0875
      4 C         139.4247  142.0218  158.2564 C.ar    1  UNL1        0.0193
      5 C         139.5600  143.0225  157.1473 C.ar    1  UNL1        0.0015
      6 C         139.8853  144.4524  157.4627 C.ar    1  UNL1        0.0002
      7 C         140.0754  144.8817  158.8873 C.ar    1  UNL1        0.0063
      8 C         139.9402  143.8810  159.9965 C.ar    1  UNL1        0.0739
      9 C         140.1303  144.3102  161.4212 C.ar    1  UNL1        0.2633
     10 O         140.4556  145.7402  161.7366 O.2     1  UNL1       -0.2669
     11 N         139.9950  143.3096  162.5304 N.ar    1  UNL1       -0.2806
     12 C         141.9956  140.1343  162.9523 C.3     1  UNL1        0.0311
     13 C         140.6974  140.0063  163.6929 C.ar    1  UNL1       -0.0189
     14 C         140.5622  139.0057  164.8021 C.ar    1  UNL1       -0.0042
     15 C         139.2641  138.8777  165.5426 C.ar    1  UNL1       -0.0003
     16 C         138.1011  139.7504  165.1739 C.ar    1  UNL1        0.0001
     17 C         138.2363  140.7510  164.0647 C.ar    1  UNL1        0.0027
     18 C         139.5345  140.8790  163.3242 C.ar    1  UNL1        0.0303
     19 C         140.0206  145.4531  156.3534 C.ar    1  UNL1        0.0001
     20 C         140.9437  145.1780  155.2036 C.ar    1  UNL1        0.0009
     21 C         141.0789  146.1787  154.0943 C.ar    1  UNL1        0.0114
     22 C         140.2910  147.4544  154.1349 C.ar    1  UNL1        0.0577
     23 CL        140.4262  148.4551  153.0257 Cl      1  UNL1       -0.0822
     24 C         139.3678  147.7295  155.2848 C.ar    1  UNL1        0.0114
     25 C         139.2326  146.7288  156.3940 C.ar    1  UNL1        0.0009
     26 C         140.1851  143.7388  163.9551 C.3     1  UNL1        0.1118
     27 C         141.4891  143.4783  164.6492 C.3     1  UNL1        0.0388
     28 C         142.7662  144.0124  164.0713 C.3     1  UNL1        0.0048
     29 C         144.0701  143.7519  164.7654 C.3     1  UNL1        0.0174
     30 C         144.0970  142.9574  166.0374 C.3     1  UNL1        0.0720
     31 N         142.8200  142.4233  166.6153 N.3     1  UNL1       -0.2739
     32 C         141.5160  142.6838  165.9212 C.3     1  UNL1        0.0739
     33 C         142.8470  141.6288  167.8873 C.3     1  UNL1        0.0576
     34 C         142.4047  140.1955  167.8858 C.3     1  UNL1        0.0173
     35 C         143.3162  142.2676  169.1608 C.3     1  UNL1        0.0173
@<TRIPOS>BOND
     1    12    13    1
     2    13    14   ar
     3    14    15   ar
     4    15    16   ar
     5    16    17   ar
     6    17    18   ar
     7    18     1    1
     8     1     2   ar
     9     2     3   ar
    10     3     4   ar
    11     4     5   ar
    12     5     6   ar
    13     6    19    1
    14    19    20   ar
    15    20    21   ar
    16    21    22   ar
    17    22    23    1
    18    22    24   ar
    19    24    25   ar
    20     6     7   ar
    21     7     8   ar
    22     8     9   ar
    23     9    10    2
    24     9    11   ar
    25    11    26    1
    26    27    26    1
    27    27    28    1
    28    28    29    1
    29    29    30    1
    30    30    31    1
    31    31    33    1
    32    33    34    1
    33    33    35    1
    34    31    32    1
    35    18    13   ar
    36    11     1   ar
    37    32    27    1
    38     8     3   ar
    39    25    19   ar
@<TRIPOS>MOLECULE
*****
 35 39 0 0 0
SMALL
GASTEIGER

@<TRIPOS>ATOM
      1 C         140.5783  141.7535  160.5916 C.ar    1  UNL1        0.1456
      2 N         140.0026  141.3623  159.2629 N.ar    1  UNL1       -0.2281
      3 C         140.4675  140.1081  158.5840 C.ar    1  UNL1        0.0875
      4 C         139.8917  139.7169  157.2553 C.ar    1  UNL1        0.0193
      5 C         140.3566  138.4627  156.5765 C.ar    1  UNL1        0.0015
      6 C         141.3972  137.5997  157.2264 C.ar    1  UNL1        0.0002
      7 C         141.9730  137.9909  158.5551 C.ar    1  UNL1        0.0063
      8 C         141.5081  139.2451  159.2339 C.ar    1  UNL1        0.0739
      9 C         142.0838  139.6363  160.5627 C.ar    1  UNL1        0.2633
     10 O         143.1245  138.7733  161.2125 O.2     1  UNL1       -0.2669
     11 N         141.6190  140.8905  161.2415 N.ar    1  UNL1       -0.2806
     12 C         137.9894  141.7675  162.1072 C.3     1  UNL1        0.0311
     13 C         138.8190  143.0147  162.0283 C.ar    1  UNL1       -0.0189
     14 C         138.3541  144.2689  162.7072 C.ar    1  UNL1       -0.0042
     15 C         139.1837  145.5161  162.6283 C.ar    1  UNL1       -0.0003
     16 C         140.4782  145.5091  161.8705 C.ar    1  UNL1        0.0001
     17 C         140.9431  144.2549  161.1916 C.ar    1  UNL1        0.0027
     18 C         140.1135  143.0078  161.2705 C.ar    1  UNL1        0.0303
     19 C         141.8621  136.3454  156.5475 C.ar    1  UNL1        0.0001
     20 C         143.0898  135.6375  157.0389 C.ar    1  UNL1        0.0009
     21 C         143.5547  134.3833  156.3600 C.ar    1  UNL1        0.0114
     22 C         142.7918  133.8370  155.1897 C.ar    1  UNL1        0.0577
     23 CL        143.2566  132.5828  154.5108 Cl      1  UNL1       -0.0822
     24 C         141.5640  134.5450  154.6983 C.ar    1  UNL1        0.0114
     25 C         141.0992  135.7992  155.3772 C.ar    1  UNL1        0.0009
     26 C         142.1947  141.2817  162.5702 C.3     1  UNL1        0.1118
     27 C         141.3363  141.2445  163.7998 C.3     1  UNL1        0.0388
     28 C         141.2929  142.4281  164.7203 C.3     1  UNL1        0.0048
     29 C         140.4345  142.3909  165.9498 C.3     1  UNL1        0.0174
     30 C         139.6195  141.1701  166.2589 C.3     1  UNL1        0.0720
     31 N         139.6630  139.9865  165.3384 N.3     1  UNL1       -0.2739
     32 C         140.5214  140.0238  164.1089 C.3     1  UNL1        0.0739
     33 C         138.8480  138.7658  165.6475 C.3     1  UNL1        0.0576
     34 C         137.9291  138.7578  166.8330 C.3     1  UNL1        0.0173
     35 C         138.9520  137.5529  164.7710 C.3     1  UNL1        0.0173
@<TRIPOS>BOND
     1    12    13    1
     2    13    14   ar
     3    14    15   ar
     4    15    16   ar
     5    16    17   ar
     6    17    18   ar
     7    18     1    1
     8     1     2   ar
     9     2     3   ar
    10     3     4   ar
    11     4     5   ar
    12     5     6   ar
    13     6    19    1
    14    19    20   ar
    15    20    21   ar
    16    21    22   ar
    17    22    23    1
    18    22    24   ar
    19    24    25   ar
    20     6     7   ar
    21     7     8   ar
    22     8     9   ar
    23     9    10    2
    24     9    11   ar
    25    11    26    1
    26    27    26    1
    27    27    28    1
    28    28    29    1
    29    29    30    1
    30    30    31    1
    31    31    33    1
    32    33    34    1
    33    33    35    1
    34    31    32    1
    35    18    13   ar
    36    11     1   ar
    37    32    27    1
    38     8     3   ar
    39    25    19   ar
@<TRIPOS>MOLECULE
*****
 35 39 0 0 0
SMALL
GASTEIGER

@<TRIPOS>ATOM
      1 C         140.8022  142.8734  161.5790 C.ar    1  UNL1        0.1456
      2 N         140.5834  142.5290  160.1356 N.ar    1  UNL1       -0.2281
      3 C         141.7520  142.4454  159.1989 C.ar    1  UNL1        0.0875
      4 C         141.5332  142.1011  157.7555 C.ar    1  UNL1        0.0193
      5 C         142.7018  142.0175  156.8189 C.ar    1  UNL1        0.0015
      6 C         144.0893  142.2782  157.3258 C.ar    1  UNL1        0.0002
      7 C         144.3082  142.6226  158.7692 C.ar    1  UNL1        0.0063
      8 C         143.1395  142.7062  159.7058 C.ar    1  UNL1        0.0739
      9 C         143.3583  143.0505  161.1493 C.ar    1  UNL1        0.2633
     10 O         144.7458  143.3113  161.6561 O.2     1  UNL1       -0.2669
     11 N         142.1897  143.1341  162.0858 N.ar    1  UNL1       -0.2806
     12 C         139.6068  145.5415  162.2514 C.3     1  UNL1        0.0311
     13 C         139.0358  144.2911  162.8519 C.ar    1  UNL1       -0.0189
     14 C         137.8672  144.3747  163.7885 C.ar    1  UNL1       -0.0042
     15 C         137.2963  143.1243  164.3889 C.ar    1  UNL1       -0.0003
     16 C         137.8940  141.7903  164.0527 C.ar    1  UNL1        0.0001
     17 C         139.0626  141.7066  163.1161 C.ar    1  UNL1        0.0027
     18 C         139.6335  142.9570  162.5157 C.ar    1  UNL1        0.0303
     19 C         145.2580  142.1946  156.3891 C.ar    1  UNL1        0.0001
     20 C         145.0306  141.9595  154.9252 C.ar    1  UNL1        0.0009
     21 C         146.1993  141.8758  153.9886 C.ar    1  UNL1        0.0114
     22 C         147.5954  142.0274  154.5159 C.ar    1  UNL1        0.0577
     23 CL        148.7640  141.9438  153.5793 Cl      1  UNL1       -0.0822
     24 C         147.8227  142.2625  155.9798 C.ar    1  UNL1        0.0114
     25 C         146.6541  142.3461  156.9164 C.ar    1  UNL1        0.0009
     26 C         142.4085  143.4785  163.5293 C.3     1  UNL1        0.1118
     27 C         141.9928  142.5153  164.6015 C.3     1  UNL1        0.0388
     28 C         141.1523  142.9888  165.7502 C.3     1  UNL1        0.0048
     29 C         140.7365  142.0256  166.8224 C.3     1  UNL1        0.0174
     30 C         141.1613  140.5890  166.7458 C.3     1  UNL1        0.0720
     31 N         142.0018  140.1156  165.5971 N.3     1  UNL1       -0.2739
     32 C         142.4175  141.0788  164.5250 C.3     1  UNL1        0.0739
     33 C         142.4265  138.6791  165.5206 C.3     1  UNL1        0.0576
     34 C         141.6239  137.7016  164.7141 C.3     1  UNL1        0.0173
     35 C         143.6539  138.2199  166.2505 C.3     1  UNL1        0.0173
@<TRIPOS>BOND
     1    12    13    1
     2    13    14   ar
     3    14    15   ar
     4    15    16   ar
     5    16    17   ar
     6    17    18   ar
     7    18     1    1
     8     1     2   ar
     9     2     3   ar
    10     3     4   ar
    11     4     5   ar
    12     5     6   ar
    13     6    19    1
    14    19    20   ar
    15    20    21   ar
    16    21    22   ar
    17    22    23    1
    18    22    24   ar
    19    24    25   ar
    20     6     7   ar
    21     7     8   ar
    22     8     9   ar
    23     9    10    2
    24     9    11   ar
    25    11    26    1
    26    27    26    1
    27    27    28    1
    28    28    29    1
    29    29    30    1
    30    30    31    1
    31    31    33    1
    32    33    34    1
    33    33    35    1
    34    31    32    1
    35    18    13   ar
    36    11     1   ar
    37    32    27    1
    38     8     3   ar
    39    25    19   ar
