@<TRIPOS>MOLECULE
*****
 24 26 0 0 0
SMALL
GASTEIGER

@<TRIPOS>ATOM
      1 O         139.0769  144.3330  164.8620 O.2     1  UNL1       -0.2651
      2 C         140.5058  144.0341  164.5171 C.ar    1  UNL1        0.2807
      3 C         141.3847  145.1144  163.9599 C.ar    1  UNL1        0.0674
      4 C         142.8135  144.8155  163.6149 C.ar    1  UNL1        0.0641
      5 C         143.3635  143.4362  163.8272 C.ar    1  UNL1        0.2424
      6 N         142.4847  142.3559  164.3843 N.ar    1  UNL1       -0.1248
      7 N         141.0558  142.6548  164.7293 N.ar    1  UNL1       -0.1916
      8 C         140.1769  141.5744  165.2865 C.ar    1  UNL1        0.0861
      9 C         140.3394  141.1361  166.7118 C.ar    1  UNL1        0.0201
     10 C         139.4606  140.0558  167.2690 C.ar    1  UNL1        0.0129
     11 C         138.4193  139.4137  166.4009 C.ar    1  UNL1        0.0578
     12 CL        137.5405  138.3333  166.9581 Cl      1  UNL1       -0.0822
     13 C         138.2569  139.8520  164.9756 C.ar    1  UNL1        0.0129
     14 C         139.1357  140.9324  164.4184 C.ar    1  UNL1        0.0201
     15 O         144.7924  143.1372  163.4822 O.3     1  UNL1       -0.4592
     16 C         145.4723  141.9391  164.0756 C.3     1  UNL1        0.2086
     17 C         145.2305  140.5764  163.4971 C.3     1  UNL1        0.0647
     18 C         144.7436  139.4636  164.3773 C.3     1  UNL1        0.0759
     19 N         143.4641  138.7529  164.0491 N.3     1  UNL1       -0.2726
     20 C         142.5329  138.3382  165.1496 C.3     1  UNL1        0.0721
     21 C         141.2534  137.6276  164.8214 C.3     1  UNL1        0.0174
     22 C         140.9050  137.3316  163.3928 C.3     1  UNL1        0.0029
     23 C         141.8361  137.7463  162.2923 C.3     1  UNL1        0.0174
     24 C         143.1157  138.4569  162.6204 C.3     1  UNL1        0.0721
@<TRIPOS>BOND
     1     1     2    2
     2     2     3   ar
     3     3     4   ar
     4     4     5   ar
     5     5    15    1
     6    15    16    1
     7    16    17    1
     8    17    18    1
     9    18    19    1
    10    19    20    1
    11    20    21    1
    12    21    22    1
    13    22    23    1
    14    23    24    1
    15     5     6   ar
    16     6     7   ar
    17     7     8    1
    18     8     9   ar
    19     9    10   ar
    20    10    11   ar
    21    11    12    1
    22    11    13   ar
    23    13    14   ar
    24     7     2   ar
    25    14     8   ar
    26    24    19    1
@<TRIPOS>MOLECULE
*****
 24 26 0 0 0
SMALL
GASTEIGER

@<TRIPOS>ATOM
      1 O         144.6297  143.0698  165.1884 O.2     1  UNL1       -0.2651
      2 C         143.2512  143.5479  164.8407 C.ar    1  UNL1        0.2807
      3 C         143.0677  144.6222  163.8101 C.ar    1  UNL1        0.0674
      4 C         141.6891  145.1004  163.4624 C.ar    1  UNL1        0.0641
      5 C         140.4941  144.5042  164.1452 C.ar    1  UNL1        0.2424
      6 N         140.6775  143.4299  165.1757 N.ar    1  UNL1       -0.1248
      7 N         142.0561  142.9517  165.5235 N.ar    1  UNL1       -0.1916
      8 C         142.2395  141.8773  166.5541 C.ar    1  UNL1        0.0861
      9 C         142.5647  142.2454  167.9714 C.ar    1  UNL1        0.0201
     10 C         142.7481  141.1711  169.0020 C.ar    1  UNL1        0.0129
     11 C         142.6064  139.7287  168.6153 C.ar    1  UNL1        0.0578
     12 CL        142.7898  138.6544  169.6459 Cl      1  UNL1       -0.0822
     13 C         142.2813  139.3606  167.1980 C.ar    1  UNL1        0.0129
     14 C         142.0979  140.4350  166.1674 C.ar    1  UNL1        0.0201
     15 O         139.1155  144.9824  163.7974 O.3     1  UNL1       -0.4592
     16 C         138.1745  144.0815  163.0538 C.3     1  UNL1        0.2086
     17 C         137.5963  142.8758  163.7333 C.3     1  UNL1        0.0647
     18 C         137.4879  141.5766  162.9914 C.3     1  UNL1        0.0759
     19 N         137.9928  140.3107  163.6179 N.3     1  UNL1       -0.2726
     20 C         138.1613  140.2258  165.1060 C.3     1  UNL1        0.0721
     21 C         138.6662  138.9599  165.7326 C.3     1  UNL1        0.0174
     22 C         139.0027  137.7790  164.8711 C.3     1  UNL1        0.0029
     23 C         138.8342  137.8639  163.3830 C.3     1  UNL1        0.0174
     24 C         138.3292  139.1297  162.7564 C.3     1  UNL1        0.0721
@<TRIPOS>BOND
     1     1     2    2
     2     2     3   ar
     3     3     4   ar
     4     4     5   ar
     5     5    15    1
     6    15    16    1
     7    16    17    1
     8    17    18    1
     9    18    19    1
    10    19    20    1
    11    20    21    1
    12    21    22    1
    13    22    23    1
    14    23    24    1
    15     5     6   ar
    16     6     7   ar
    17     7     8    1
    18     8     9   ar
    19     9    10   ar
    20    10    11   ar
    21    11    12    1
    22    11    13   ar
    23    13    14   ar
    24     7     2   ar
    25    14     8   ar
    26    24    19    1
@<TRIPOS>MOLECULE
*****
 24 26 0 0 0
SMALL
GASTEIGER

@<TRIPOS>ATOM
      1 O         143.7401  138.1823  165.8871 O.2     1  UNL1       -0.2651
      2 C         143.7662  139.3832  164.9886 C.ar    1  UNL1        0.2807
      3 C         145.0565  139.8245  164.3639 C.ar    1  UNL1        0.0674
      4 C         145.0826  141.0253  163.4654 C.ar    1  UNL1        0.0641
      5 C         143.8184  141.7848  163.1916 C.ar    1  UNL1        0.2424
      6 N         142.5282  141.3435  163.8164 N.ar    1  UNL1       -0.1248
      7 N         142.5021  140.1427  164.7149 N.ar    1  UNL1       -0.1916
      8 C         141.2117  139.7014  165.3397 C.ar    1  UNL1        0.0861
      9 C         140.7912  140.2603  166.6667 C.ar    1  UNL1        0.0201
     10 C         139.5010  139.8190  167.2915 C.ar    1  UNL1        0.0129
     11 C         138.6311  138.8188  166.5893 C.ar    1  UNL1        0.0578
     12 CL        137.3408  138.3775  167.2141 Cl      1  UNL1       -0.0822
     13 C         139.0515  138.2599  165.2623 C.ar    1  UNL1        0.0129
     14 C         140.3419  138.7012  164.6375 C.ar    1  UNL1        0.0201
     15 O         143.8445  142.9857  162.2931 O.3     1  UNL1       -0.4592
     16 C         144.0474  144.3533  162.8748 C.3     1  UNL1        0.2086
     17 C         143.0209  144.9340  163.8017 C.3     1  UNL1        0.0647
     18 C         141.7097  145.4200  163.2588 C.3     1  UNL1        0.0759
     19 N         140.4352  144.7322  163.6492 N.3     1  UNL1       -0.2726
     20 C         140.4128  143.8087  164.8310 C.3     1  UNL1        0.0721
     21 C         139.1383  143.1209  165.2214 C.3     1  UNL1        0.0174
     22 C         137.8860  143.3565  164.4300 C.3     1  UNL1        0.0029
     23 C         137.9083  144.2800  163.2481 C.3     1  UNL1        0.0174
     24 C         139.1829  144.9679  162.8577 C.3     1  UNL1        0.0721
@<TRIPOS>BOND
     1     1     2    2
     2     2     3   ar
     3     3     4   ar
     4     4     5   ar
     5     5    15    1
     6    15    16    1
     7    16    17    1
     8    17    18    1
     9    18    19    1
    10    19    20    1
    11    20    21    1
    12    21    22    1
    13    22    23    1
    14    23    24    1
    15     5     6   ar
    16     6     7   ar
    17     7     8    1
    18     8     9   ar
    19     9    10   ar
    20    10    11   ar
    21    11    12    1
    22    11    13   ar
    23    13    14   ar
    24     7     2   ar
    25    14     8   ar
    26    24    19    1
@<TRIPOS>MOLECULE
*****
 24 26 0 0 0
SMALL
GASTEIGER

@<TRIPOS>ATOM
      1 O         143.4128  137.9711  166.1131 O.2     1  UNL1       -0.2651
      2 C         143.7566  139.2834  165.4731 C.ar    1  UNL1        0.2807
      3 C         144.8511  139.3549  164.4499 C.ar    1  UNL1        0.0674
      4 C         145.1949  140.6672  163.8099 C.ar    1  UNL1        0.0641
      5 C         144.4441  141.9080  164.1930 C.ar    1  UNL1        0.2424
      6 N         143.3496  141.8365  165.2161 N.ar    1  UNL1       -0.1248
      7 N         143.0058  140.5242  165.8562 N.ar    1  UNL1       -0.1916
      8 C         141.9113  140.4527  166.8794 C.ar    1  UNL1        0.0861
      9 C         142.1746  140.8869  168.2908 C.ar    1  UNL1        0.0201
     10 C         141.0801  140.8154  169.3140 C.ar    1  UNL1        0.0129
     11 C         139.7222  140.3098  168.9258 C.ar    1  UNL1        0.0578
     12 CL        138.6277  140.2383  169.9490 Cl      1  UNL1       -0.0822
     13 C         139.4589  139.8756  167.5143 C.ar    1  UNL1        0.0129
     14 C         140.5535  139.9471  166.4911 C.ar    1  UNL1        0.0201
     15 O         144.7879  143.2203  163.5529 O.3     1  UNL1       -0.4592
     16 C         143.7232  144.0194  162.8617 C.3     1  UNL1        0.2086
     17 C         142.9491  145.0544  163.6229 C.3     1  UNL1        0.0647
     18 C         141.5950  145.4833  163.1406 C.3     1  UNL1        0.0759
     19 N         140.3695  144.7467  163.5939 N.3     1  UNL1       -0.2726
     20 C         139.0774  144.9115  162.8500 C.3     1  UNL1        0.0721
     21 C         137.8519  144.1748  163.3032 C.3     1  UNL1        0.0174
     22 C         137.9184  143.2735  164.5003 C.3     1  UNL1        0.0029
     23 C         139.2105  143.1087  165.2443 C.3     1  UNL1        0.0174
     24 C         140.4360  143.8453  164.7910 C.3     1  UNL1        0.0721
@<TRIPOS>BOND
     1     1     2    2
     2     2     3   ar
     3     3     4   ar
     4     4     5   ar
     5     5    15    1
     6    15    16    1
     7    16    17    1
     8    17    18    1
     9    18    19    1
    10    19    20    1
    11    20    21    1
    12    21    22    1
    13    22    23    1
    14    23    24    1
    15     5     6   ar
    16     6     7   ar
    17     7     8    1
    18     8     9   ar
    19     9    10   ar
    20    10    11   ar
    21    11    12    1
    22    11    13   ar
    23    13    14   ar
    24     7     2   ar
    25    14     8   ar
    26    24    19    1
@<TRIPOS>MOLECULE
*****
 24 26 0 0 0
SMALL
GASTEIGER

@<TRIPOS>ATOM
      1 O         144.4558  143.7300  165.2078 O.2     1  UNL1       -0.2651
      2 C         143.1466  143.7775  164.4773 C.ar    1  UNL1        0.2807
      3 C         142.6870  145.0573  163.8442 C.ar    1  UNL1        0.0674
      4 C         141.3778  145.1048  163.1137 C.ar    1  UNL1        0.0641
      5 C         140.5281  143.8726  163.0163 C.ar    1  UNL1        0.2424
      6 N         140.9877  142.5928  163.6494 N.ar    1  UNL1       -0.1248
      7 N         142.2969  142.5453  164.3799 N.ar    1  UNL1       -0.1916
      8 C         142.7565  141.2654  165.0131 C.ar    1  UNL1        0.0861
      9 C         143.7815  140.4138  164.3245 C.ar    1  UNL1        0.0201
     10 C         144.2410  139.1340  164.9575 C.ar    1  UNL1        0.0129
     11 C         143.6756  138.7057  166.2793 C.ar    1  UNL1        0.0578
     12 CL        144.1351  137.4259  166.9124 Cl      1  UNL1       -0.0822
     13 C         142.6506  139.5573  166.9679 C.ar    1  UNL1        0.0129
     14 C         142.1910  140.8372  166.3347 C.ar    1  UNL1        0.0201
     15 O         139.2189  143.9201  162.2858 O.3     1  UNL1       -0.4592
     16 C         137.9321  143.9684  163.0551 C.3     1  UNL1        0.2086
     17 C         137.4225  142.7364  163.7424 C.3     1  UNL1        0.0647
     18 C         137.4301  141.4194  163.0243 C.3     1  UNL1        0.0759
     19 N         138.0366  140.2128  163.6770 N.3     1  UNL1       -0.2726
     20 C         138.3743  139.0050  162.8541 C.3     1  UNL1        0.0721
     21 C         138.9807  137.7983  163.5069 C.3     1  UNL1        0.0174
     22 C         139.2495  137.7994  164.9826 C.3     1  UNL1        0.0029
     23 C         138.9118  139.0071  165.8056 C.3     1  UNL1        0.0174
     24 C         138.3053  140.2138  165.1528 C.3     1  UNL1        0.0721
@<TRIPOS>BOND
     1     1     2    2
     2     2     3   ar
     3     3     4   ar
     4     4     5   ar
     5     5    15    1
     6    15    16    1
     7    16    17    1
     8    17    18    1
     9    18    19    1
    10    19    20    1
    11    20    21    1
    12    21    22    1
    13    22    23    1
    14    23    24    1
    15     5     6   ar
    16     6     7   ar
    17     7     8    1
    18     8     9   ar
    19     9    10   ar
    20    10    11   ar
    21    11    12    1
    22    11    13   ar
    23    13    14   ar
    24     7     2   ar
    25    14     8   ar
    26    24    19    1
@<TRIPOS>MOLECULE
*****
 24 26 0 0 0
SMALL
GASTEIGER

@<TRIPOS>ATOM
      1 O         140.0346  137.1408  164.7862 O.2     1  UNL1       -0.2651
      2 C         139.3600  138.3660  164.2442 C.ar    1  UNL1        0.2807
      3 C         138.5885  138.2913  162.9601 C.ar    1  UNL1        0.0674
      4 C         137.9138  139.5165  162.4181 C.ar    1  UNL1        0.0641
      5 C         138.0107  140.8164  163.1603 C.ar    1  UNL1        0.2424
      6 N         138.7822  140.8910  164.4444 N.ar    1  UNL1       -0.1248
      7 N         139.4568  139.6659  164.9864 N.ar    1  UNL1       -0.1916
      8 C         140.2284  139.7406  166.2707 C.ar    1  UNL1        0.0861
      9 C         141.7186  139.5697  166.2614 C.ar    1  UNL1        0.0201
     10 C         142.4901  139.6445  167.5455 C.ar    1  UNL1        0.0129
     11 C         141.7714  139.8901  168.8391 C.ar    1  UNL1        0.0578
     12 CL        142.5430  139.9648  170.1233 Cl      1  UNL1       -0.0822
     13 C         140.2812  140.0609  168.8484 C.ar    1  UNL1        0.0129
     14 C         139.5097  139.9862  167.5642 C.ar    1  UNL1        0.0201
     15 O         137.3360  142.0416  162.6183 O.3     1  UNL1       -0.4592
     16 C         137.5908  143.3788  163.2483 C.3     1  UNL1        0.2086
     17 C         138.8830  144.0955  162.9901 C.3     1  UNL1        0.0647
     18 C         139.6409  144.7091  164.1299 C.3     1  UNL1        0.0759
     19 N         141.1001  144.4103  164.3074 N.3     1  UNL1       -0.2726
     20 C         142.1306  145.3302  163.7226 C.3     1  UNL1        0.0721
     21 C         143.5898  145.0314  163.9001 C.3     1  UNL1        0.0174
     22 C         144.0185  143.8128  164.6623 C.3     1  UNL1        0.0029
     23 C         142.9881  142.8928  165.2471 C.3     1  UNL1        0.0174
     24 C         141.5289  143.1916  165.0696 C.3     1  UNL1        0.0721
@<TRIPOS>BOND
     1     1     2    2
     2     2     3   ar
     3     3     4   ar
     4     4     5   ar
     5     5    15    1
     6    15    16    1
     7    16    17    1
     8    17    18    1
     9    18    19    1
    10    19    20    1
    11    20    21    1
    12    21    22    1
    13    22    23    1
    14    23    24    1
    15     5     6   ar
    16     6     7   ar
    17     7     8    1
    18     8     9   ar
    19     9    10   ar
    20    10    11   ar
    21    11    12    1
    22    11    13   ar
    23    13    14   ar
    24     7     2   ar
    25    14     8   ar
    26    24    19    1
@<TRIPOS>MOLECULE
*****
 24 26 0 0 0
SMALL
GASTEIGER

@<TRIPOS>ATOM
      1 O         142.6584  138.7459  166.4187 O.2     1  UNL1       -0.2651
      2 C         141.5096  138.6669  165.4575 C.ar    1  UNL1        0.2807
      3 C         141.5755  137.7335  164.2851 C.ar    1  UNL1        0.0674
      4 C         140.4267  137.6544  163.3239 C.ar    1  UNL1        0.0641
      5 C         139.2120  138.5088  163.5349 C.ar    1  UNL1        0.2424
      6 N         139.1462  139.4422  164.7072 N.ar    1  UNL1       -0.1248
      7 N         140.2949  139.5212  165.6685 N.ar    1  UNL1       -0.1916
      8 C         140.2290  140.4547  166.8409 C.ar    1  UNL1        0.0861
      9 C         140.6840  141.8764  166.6940 C.ar    1  UNL1        0.0201
     10 C         140.6181  142.8099  167.8663 C.ar    1  UNL1        0.0129
     11 C         140.0971  142.3216  169.1855 C.ar    1  UNL1        0.0578
     12 CL        140.0312  143.2550  170.3578 Cl      1  UNL1       -0.0822
     13 C         139.6421  140.8998  169.3324 C.ar    1  UNL1        0.0129
     14 C         139.7081  139.9664  168.1600 C.ar    1  UNL1        0.0201
     15 O         138.0633  138.4298  162.5736 O.3     1  UNL1       -0.4592
     16 C         137.7362  139.6027  161.6977 C.3     1  UNL1        0.2086
     17 C         138.7993  140.6051  161.3587 C.3     1  UNL1        0.0647
     18 C         138.4543  142.0620  161.2662 C.3     1  UNL1        0.0759
     19 N         138.6697  142.9603  162.4480 N.3     1  UNL1       -0.2726
     20 C         139.8749  143.8517  162.5027 C.3     1  UNL1        0.0721
     21 C         140.0903  144.7499  163.6845 C.3     1  UNL1        0.0174
     22 C         139.1006  144.7569  164.8116 C.3     1  UNL1        0.0029
     23 C         137.8954  143.8654  164.7569 C.3     1  UNL1        0.0174
     24 C         137.6800  142.9672  163.5751 C.3     1  UNL1        0.0721
@<TRIPOS>BOND
     1     1     2    2
     2     2     3   ar
     3     3     4   ar
     4     4     5   ar
     5     5    15    1
     6    15    16    1
     7    16    17    1
     8    17    18    1
     9    18    19    1
    10    19    20    1
    11    20    21    1
    12    21    22    1
    13    22    23    1
    14    23    24    1
    15     5     6   ar
    16     6     7   ar
    17     7     8    1
    18     8     9   ar
    19     9    10   ar
    20    10    11   ar
    21    11    12    1
    22    11    13   ar
    23    13    14   ar
    24     7     2   ar
    25    14     8   ar
    26    24    19    1
@<TRIPOS>MOLECULE
*****
 24 26 0 0 0
SMALL
GASTEIGER

@<TRIPOS>ATOM
      1 O         139.5339  144.8574  165.1162 O.2     1  UNL1       -0.2651
      2 C         139.0736  143.5400  164.5662 C.ar    1  UNL1        0.2807
      3 C         138.0201  143.4996  163.4992 C.ar    1  UNL1        0.0674
      4 C         137.5598  142.1822  162.9491 C.ar    1  UNL1        0.0641
      5 C         138.1530  140.9052  163.4660 C.ar    1  UNL1        0.2424
      6 N         139.2065  140.9455  164.5330 N.ar    1  UNL1       -0.1248
      7 N         139.6668  142.2629  165.0831 N.ar    1  UNL1       -0.1916
      8 C         140.7203  142.3033  166.1501 C.ar    1  UNL1        0.0861
      9 C         142.1717  142.2752  165.7725 C.ar    1  UNL1        0.0201
     10 C         143.2252  142.3155  166.8395 C.ar    1  UNL1        0.0129
     11 C         142.8273  142.3839  168.2842 C.ar    1  UNL1        0.0578
     12 CL        143.8808  142.4242  169.3511 Cl      1  UNL1       -0.0822
     13 C         141.3759  142.4119  168.6618 C.ar    1  UNL1        0.0129
     14 C         140.3224  142.3716  167.5948 C.ar    1  UNL1        0.0201
     15 O         137.6927  139.5878  162.9159 O.3     1  UNL1       -0.4592
     16 C         138.6931  138.6112  162.3725 C.3     1  UNL1        0.2086
     17 C         139.4410  137.7060  163.3060 C.3     1  UNL1        0.0647
     18 C         140.8335  137.2633  162.9663 C.3     1  UNL1        0.0759
     19 N         142.0117  137.9429  163.5987 N.3     1  UNL1       -0.2726
     20 C         142.1039  138.0488  165.0921 C.3     1  UNL1        0.0721
     21 C         143.2821  138.7284  165.7245 C.3     1  UNL1        0.0174
     22 C         144.3681  139.3021  164.8635 C.3     1  UNL1        0.0029
     23 C         144.2760  139.1963  163.3701 C.3     1  UNL1        0.0174
     24 C         143.0977  138.5167  162.7377 C.3     1  UNL1        0.0721
@<TRIPOS>BOND
     1     1     2    2
     2     2     3   ar
     3     3     4   ar
     4     4     5   ar
     5     5    15    1
     6    15    16    1
     7    16    17    1
     8    17    18    1
     9    18    19    1
    10    19    20    1
    11    20    21    1
    12    21    22    1
    13    22    23    1
    14    23    24    1
    15     5     6   ar
    16     6     7   ar
    17     7     8    1
    18     8     9   ar
    19     9    10   ar
    20    10    11   ar
    21    11    12    1
    22    11    13   ar
    23    13    14   ar
    24     7     2   ar
    25    14     8   ar
    26    24    19    1
@<TRIPOS>MOLECULE
*****
 24 26 0 0 0
SMALL
GASTEIGER

@<TRIPOS>ATOM
      1 O         143.1629  138.6117  168.2535 O.2     1  UNL1       -0.2651
      2 C         142.8937  139.0468  166.8434 C.ar    1  UNL1        0.2807
      3 C         143.5649  138.3443  165.7007 C.ar    1  UNL1        0.0674
      4 C         143.2957  138.7794  164.2906 C.ar    1  UNL1        0.0641
      5 C         142.3552  139.9169  164.0233 C.ar    1  UNL1        0.2424
      6 N         141.6840  140.6194  165.1661 N.ar    1  UNL1       -0.1248
      7 N         141.9532  140.1843  166.5761 N.ar    1  UNL1       -0.1916
      8 C         141.2819  140.8868  167.7189 C.ar    1  UNL1        0.0861
      9 C         140.2328  140.1777  168.5230 C.ar    1  UNL1        0.0201
     10 C         139.5615  140.8802  169.6657 C.ar    1  UNL1        0.0129
     11 C         139.9393  142.2918  170.0044 C.ar    1  UNL1        0.0578
     12 CL        139.2680  142.9943  171.1471 Cl      1  UNL1       -0.0822
     13 C         140.9884  143.0009  169.2004 C.ar    1  UNL1        0.0129
     14 C         141.6597  142.2984  168.0576 C.ar    1  UNL1        0.0201
     15 O         142.0860  140.3520  162.6133 O.3     1  UNL1       -0.4592
     16 C         141.1776  141.5157  162.3479 C.3     1  UNL1        0.2086
     17 C         139.8956  141.3104  161.5967 C.3     1  UNL1        0.0647
     18 C         139.1072  140.0489  161.7893 C.3     1  UNL1        0.0759
     19 N         138.8751  139.5131  163.1710 N.3     1  UNL1       -0.2726
     20 C         138.2693  140.3925  164.2244 C.3     1  UNL1        0.0721
     21 C         138.0372  139.8568  165.6061 C.3     1  UNL1        0.0174
     22 C         138.4109  138.4417  165.9345 C.3     1  UNL1        0.0029
     23 C         139.0168  137.5623  164.8811 C.3     1  UNL1        0.0174
     24 C         139.2488  138.0980  163.4993 C.3     1  UNL1        0.0721
@<TRIPOS>BOND
     1     1     2    2
     2     2     3   ar
     3     3     4   ar
     4     4     5   ar
     5     5    15    1
     6    15    16    1
     7    16    17    1
     8    17    18    1
     9    18    19    1
    10    19    20    1
    11    20    21    1
    12    21    22    1
    13    22    23    1
    14    23    24    1
    15     5     6   ar
    16     6     7   ar
    17     7     8    1
    18     8     9   ar
    19     9    10   ar
    20    10    11   ar
    21    11    12    1
    22    11    13   ar
    23    13    14   ar
    24     7     2   ar
    25    14     8   ar
    26    24    19    1
