@<TRIPOS>MOLECULE
*****
 34 37 0 0 0
SMALL
GASTEIGER

@<TRIPOS>ATOM
      1 C         140.3116  141.4868  168.9561 C.ar    1  UNL1        0.1026
      2 S         140.9095  141.7128  167.5990 S.2     1  UNL1       -0.0617
      3 C         140.2352  140.7826  166.6346 C.ar    1  UNL1        0.1149
      4 N         140.4139  140.5615  165.1619 N.ar    1  UNL1       -0.2200
      5 C         139.5781  139.5394  164.4501 C.ar    1  UNL1        0.1642
      6 N         138.5635  138.7384  165.2111 N.ar    1  UNL1       -0.2123
      7 C         138.3848  138.9596  166.6839 C.ar    1  UNL1        0.1286
      8 N         137.3702  138.1587  167.4449 N.pl3   1  UNL1       -0.3425
      9 C         139.2206  139.9817  167.3956 C.ar    1  UNL1        0.0518
     10 C         139.2679  140.4169  168.8303 C.ar    1  UNL1       -0.0049
     11 C         138.4201  139.8770  169.9438 C.3     1  UNL1        0.0319
     12 H         136.8216  137.4878  166.9777 H       1  UNL1        0.1437
     13 H         137.2528  138.3038  168.4115 H       1  UNL1        0.1437
     14 C         140.6910  142.2046  170.2173 C.2     1  UNL1        0.3470
     15 O         140.0688  143.5303  170.5420 O.2     1  UNL1       -0.2443
     16 O         141.6926  141.5968  171.1540 O.3     1  UNL1       -0.4451
     17 C         142.6107  139.3125  170.3240 C.3     1  UNL1        0.0513
     18 C         142.8205  140.7696  170.6121 C.3     1  UNL1        0.2089
     19 C         139.7569  139.3181  162.9773 C.2     1  UNL1        0.0388
     20 C         141.0256  138.7086  162.4589 C.2     1  UNL1        0.0032
     21 C         141.2044  138.4874  160.9861 C.ar    1  UNL1        0.0032
     22 C         142.5139  137.9822  160.4571 C.ar    1  UNL1        0.0017
     23 C         142.6927  137.7610  158.9843 C.ar    1  UNL1        0.0206
     24 C         141.5619  138.0449  158.0406 C.ar    1  UNL1        0.0994
     25 C         140.2524  138.5501  158.5696 C.ar    1  UNL1        0.1547
     26 C         140.0736  138.7713  160.0424 C.ar    1  UNL1        0.0384
     27 N         141.7407  137.8237  156.5678 N.ar    1  UNL1       -0.2839
     28 C         142.1792  138.8528  155.5684 C.ar    1  UNL1        0.1826
     29 N         142.2218  138.1996  154.2188 N.ar    1  UNL1       -0.2280
     30 C         141.8096  136.7668  154.3840 C.ar    1  UNL1        0.0786
     31 C         141.7120  135.7457  153.2896 C.3     1  UNL1        0.0538
     32 C         141.5123  136.5345  155.8357 C.ar    1  UNL1        0.0963
     33 O         139.1216  138.8341  157.6258 O.3     1  UNL1       -0.4700
     34 C         138.5520  140.2186  157.5328 C.3     1  UNL1        0.2525
@<TRIPOS>BOND
     1    17    18    1
     2    18    16    1
     3    16    14    1
     4    14    15    2
     5    14     1    1
     6     1     2   ar
     7     2     3   ar
     8     3     4   ar
     9     4     5   ar
    10     5    19    1
    11    19    20    2
    12    20    21    1
    13    21    22   ar
    14    22    23   ar
    15    23    24   ar
    16    24    27    1
    17    27    28   ar
    18    28    29   ar
    19    29    30   ar
    20    30    31    1
    21    30    32   ar
    22    24    25   ar
    23    25    33    1
    24    33    34    1
    25    25    26   ar
    26     5     6   ar
    27     6     7   ar
    28     7     8    1
    29     7     9   ar
    30     9    10   ar
    31    10    11    1
    32    10     1   ar
    33     9     3   ar
    34    26    21   ar
    35    32    27   ar
    36     8    12    1
    37     8    13    1
@<TRIPOS>MOLECULE
*****
 34 37 0 0 0
SMALL
GASTEIGER

@<TRIPOS>ATOM
      1 C         140.3468  140.3737  168.8132 C.ar    1  UNL1        0.1026
      2 S         140.0153  140.9063  167.4507 S.2     1  UNL1       -0.0617
      3 C         141.0324  140.3744  166.4850 C.ar    1  UNL1        0.1149
      4 N         141.2083  140.5631  165.0073 N.ar    1  UNL1       -0.2200
      5 C         142.3443  139.8904  164.2954 C.ar    1  UNL1        0.1642
      6 N         143.3043  139.0289  165.0610 N.ar    1  UNL1       -0.2123
      7 C         143.1284  138.8402  166.5387 C.ar    1  UNL1        0.1286
      8 N         144.0885  137.9788  167.3043 N.pl3   1  UNL1       -0.3425
      9 C         141.9924  139.5129  167.2506 C.ar    1  UNL1        0.0518
     10 C         141.5687  139.5125  168.6895 C.ar    1  UNL1       -0.0049
     11 C         142.2477  138.7796  169.8083 C.3     1  UNL1        0.0319
     12 H         144.8341  137.5372  166.8370 H       1  UNL1        0.1437
     13 H         143.9730  137.8549  168.2741 H       1  UNL1        0.1437
     14 C         139.5893  140.6532  170.0774 C.2     1  UNL1        0.3470
     15 O         138.3331  139.8925  170.3828 O.2     1  UNL1       -0.2443
     16 O         140.0880  141.6933  171.0362 O.3     1  UNL1       -0.4451
     17 C         140.4344  144.0149  169.9225 C.3     1  UNL1        0.0513
     18 C         141.0037  142.7795  170.5548 C.3     1  UNL1        0.2089
     19 C         142.5203  140.0790  162.8177 C.2     1  UNL1        0.0388
     20 C         143.7673  140.7218  162.2869 C.2     1  UNL1        0.0032
     21 C         143.9433  140.9105  160.8092 C.ar    1  UNL1        0.0032
     22 C         144.3776  142.2410  160.2695 C.ar    1  UNL1        0.0017
     23 C         144.5535  142.4297  158.7919 C.ar    1  UNL1        0.0206
     24 C         144.2952  141.2880  157.8540 C.ar    1  UNL1        0.0994
     25 C         143.8610  139.9575  158.3937 C.ar    1  UNL1        0.1547
     26 C         143.6850  139.7688  159.8713 C.ar    1  UNL1        0.0384
     27 N         144.4712  141.4767  156.3763 N.ar    1  UNL1       -0.2839
     28 C         143.4081  141.9071  155.4097 C.ar    1  UNL1        0.1826
     29 N         144.0211  141.9645  154.0418 N.ar    1  UNL1       -0.2280
     30 C         145.4631  141.5695  154.1631 C.ar    1  UNL1        0.0786
     31 C         146.4530  141.4900  153.0390 C.3     1  UNL1        0.0538
     32 C         145.7413  141.2680  155.6059 C.ar    1  UNL1        0.0963
     33 O         143.6026  138.8157  157.4558 O.3     1  UNL1       -0.4700
     34 C         142.2191  138.2515  157.3242 C.3     1  UNL1        0.2525
@<TRIPOS>BOND
     1    17    18    1
     2    18    16    1
     3    16    14    1
     4    14    15    2
     5    14     1    1
     6     1     2   ar
     7     2     3   ar
     8     3     4   ar
     9     4     5   ar
    10     5    19    1
    11    19    20    2
    12    20    21    1
    13    21    22   ar
    14    22    23   ar
    15    23    24   ar
    16    24    27    1
    17    27    28   ar
    18    28    29   ar
    19    29    30   ar
    20    30    31    1
    21    30    32   ar
    22    24    25   ar
    23    25    33    1
    24    33    34    1
    25    25    26   ar
    26     5     6   ar
    27     6     7   ar
    28     7     8    1
    29     7     9   ar
    30     9    10   ar
    31    10    11    1
    32    10     1   ar
    33     9     3   ar
    34    26    21   ar
    35    32    27   ar
    36     8    12    1
    37     8    13    1
@<TRIPOS>MOLECULE
*****
 34 37 0 0 0
SMALL
GASTEIGER

@<TRIPOS>ATOM
      1 C         140.3665  140.0914  168.7454 C.ar    1  UNL1        0.1026
      2 S         139.5534  140.2082  167.4904 S.2     1  UNL1       -0.0617
      3 C         140.3767  139.6791  166.3536 C.ar    1  UNL1        0.1149
      4 N         140.0934  139.5441  164.8869 N.ar    1  UNL1       -0.2200
      5 C         141.1322  138.9653  163.9726 C.ar    1  UNL1        0.1642
      6 N         142.4542  138.5216  164.5251 N.ar    1  UNL1       -0.2123
      7 C         142.7375  138.6566  165.9918 C.ar    1  UNL1        0.1286
      8 N         144.0596  138.2128  166.5443 N.pl3   1  UNL1       -0.3425
      9 C         141.6988  139.2354  166.9061 C.ar    1  UNL1        0.0518
     10 C         141.6925  139.4902  168.3843 C.ar    1  UNL1       -0.0049
     11 C         142.8150  139.1955  169.3345 C.3     1  UNL1        0.0319
     12 H         144.7414  137.8330  165.9442 H       1  UNL1        0.1437
     13 H         144.2455  138.3015  167.5070 H       1  UNL1        0.1437
     14 C         139.9304  140.5035  170.1202 C.2     1  UNL1        0.3470
     15 O         138.7190  139.8749  170.7426 O.2     1  UNL1       -0.2443
     16 O         140.7055  141.5443  170.8724 O.3     1  UNL1       -0.4451
     17 C         140.4382  143.8867  169.7808 C.3     1  UNL1        0.0513
     18 C         141.2986  142.7120  170.1412 C.3     1  UNL1        0.2089
     19 C         140.8489  138.8303  162.5057 C.2     1  UNL1        0.0388
     20 C         141.9601  138.4972  161.5548 C.2     1  UNL1        0.0032
     21 C         141.6768  138.3621  160.0880 C.ar    1  UNL1        0.0032
     22 C         140.3367  138.7588  159.5433 C.ar    1  UNL1        0.0017
     23 C         140.0534  138.6238  158.0765 C.ar    1  UNL1        0.0206
     24 C         141.1102  138.0921  157.1544 C.ar    1  UNL1        0.0994
     25 C         142.4504  137.6954  157.6991 C.ar    1  UNL1        0.1547
     26 C         142.7337  137.8304  159.1659 C.ar    1  UNL1        0.0384
     27 N         140.8269  137.9571  155.6876 N.ar    1  UNL1       -0.2839
     28 C         141.0968  138.9944  154.6383 C.ar    1  UNL1        0.1826
     29 N         140.6607  138.4394  153.3148 N.ar    1  UNL1       -0.2280
     30 C         140.1213  137.0589  153.5460 C.ar    1  UNL1        0.0786
     31 C         139.5751  136.1383  152.4953 C.3     1  UNL1        0.0538
     32 C         140.2241  136.7608  155.0125 C.ar    1  UNL1        0.0963
     33 O         143.5072  137.1637  156.7769 O.3     1  UNL1       -0.4700
     34 C         143.5499  135.7005  156.4496 C.3     1  UNL1        0.2525
@<TRIPOS>BOND
     1    17    18    1
     2    18    16    1
     3    16    14    1
     4    14    15    2
     5    14     1    1
     6     1     2   ar
     7     2     3   ar
     8     3     4   ar
     9     4     5   ar
    10     5    19    1
    11    19    20    2
    12    20    21    1
    13    21    22   ar
    14    22    23   ar
    15    23    24   ar
    16    24    27    1
    17    27    28   ar
    18    28    29   ar
    19    29    30   ar
    20    30    31    1
    21    30    32   ar
    22    24    25   ar
    23    25    33    1
    24    33    34    1
    25    25    26   ar
    26     5     6   ar
    27     6     7   ar
    28     7     8    1
    29     7     9   ar
    30     9    10   ar
    31    10    11    1
    32    10     1   ar
    33     9     3   ar
    34    26    21   ar
    35    32    27   ar
    36     8    12    1
    37     8    13    1
@<TRIPOS>MOLECULE
*****
 34 37 0 0 0
SMALL
GASTEIGER

@<TRIPOS>ATOM
      1 C         140.1814  142.5662  166.0719 C.ar    1  UNL1        0.1026
      2 S         140.6632  141.3926  165.2717 S.2     1  UNL1       -0.0617
      3 C         140.0815  141.5012  163.8933 C.ar    1  UNL1        0.1149
      4 N         140.2093  140.6306  162.6785 N.ar    1  UNL1       -0.2200
      5 C         139.4957  141.0007  161.4122 C.ar    1  UNL1        0.1642
      6 N         138.6543  142.2415  161.3606 N.ar    1  UNL1       -0.2123
      7 C         138.5265  143.1121  162.5753 C.ar    1  UNL1        0.1286
      8 N         137.6852  144.3528  162.5237 N.pl3   1  UNL1       -0.3425
      9 C         139.2402  142.7419  163.8417 C.ar    1  UNL1        0.0518
     10 C         139.3019  143.4001  165.1882 C.ar    1  UNL1       -0.0049
     11 C         138.6062  144.6694  165.5817 C.3     1  UNL1        0.0319
     12 H         137.2168  144.5957  161.6926 H       1  UNL1        0.1437
     13 H         137.6013  144.9242  163.3211 H       1  UNL1        0.1437
     14 C         140.5196  142.8552  167.5045 C.2     1  UNL1        0.3470
     15 O         139.8120  143.9580  168.2344 O.2     1  UNL1       -0.2443
     16 O         141.5655  142.0413  168.2070 O.3     1  UNL1       -0.4451
     17 C         143.7267  142.3721  169.6105 C.3     1  UNL1        0.0513
     18 C         142.2552  142.5922  169.4198 C.3     1  UNL1        0.2089
     19 C         139.6234  140.1301  160.1973 C.2     1  UNL1        0.0388
     20 C         140.9346  139.4752  159.8785 C.2     1  UNL1        0.0032
     21 C         141.0624  138.6046  158.6636 C.ar    1  UNL1        0.0032
     22 C         142.4175  138.1614  158.1976 C.ar    1  UNL1        0.0017
     23 C         142.5453  137.2909  156.9829 C.ar    1  UNL1        0.0206
     24 C         141.3179  136.8634  156.2341 C.ar    1  UNL1        0.0994
     25 C         139.9627  137.3066  156.7001 C.ar    1  UNL1        0.1547
     26 C         139.8350  138.1771  157.9148 C.ar    1  UNL1        0.0384
     27 N         141.4457  135.9928  155.0192 N.ar    1  UNL1       -0.2839
     28 C         141.8010  136.4545  153.6370 C.ar    1  UNL1        0.1826
     29 N         141.8154  135.2547  152.7369 N.ar    1  UNL1       -0.2280
     30 C         141.4690  134.0514  153.5628 C.ar    1  UNL1        0.0786
     31 C         141.3687  132.6398  153.0655 C.3     1  UNL1        0.0538
     32 C         141.2405  134.5076  154.9734 C.ar    1  UNL1        0.0963
     33 O         138.7353  136.8791  155.9512 O.3     1  UNL1       -0.4700
     34 C         138.2792  137.6569  154.7525 C.3     1  UNL1        0.2525
@<TRIPOS>BOND
     1    17    18    1
     2    18    16    1
     3    16    14    1
     4    14    15    2
     5    14     1    1
     6     1     2   ar
     7     2     3   ar
     8     3     4   ar
     9     4     5   ar
    10     5    19    1
    11    19    20    2
    12    20    21    1
    13    21    22   ar
    14    22    23   ar
    15    23    24   ar
    16    24    27    1
    17    27    28   ar
    18    28    29   ar
    19    29    30   ar
    20    30    31    1
    21    30    32   ar
    22    24    25   ar
    23    25    33    1
    24    33    34    1
    25    25    26   ar
    26     5     6   ar
    27     6     7   ar
    28     7     8    1
    29     7     9   ar
    30     9    10   ar
    31    10    11    1
    32    10     1   ar
    33     9     3   ar
    34    26    21   ar
    35    32    27   ar
    36     8    12    1
    37     8    13    1
@<TRIPOS>MOLECULE
*****
 34 37 0 0 0
SMALL
GASTEIGER

@<TRIPOS>ATOM
      1 C         144.0266  141.0266  160.4412 C.ar    1  UNL1        0.1026
      2 S         143.5621  139.6053  160.5600 S.2     1  UNL1       -0.0617
      3 C         143.3532  139.0685  159.1750 C.ar    1  UNL1        0.1149
      4 N         142.9010  137.7284  158.6755 N.ar    1  UNL1       -0.2200
      5 C         142.7840  137.4779  157.2012 C.ar    1  UNL1        0.1642
      6 N         143.1194  138.5675  156.2264 N.ar    1  UNL1       -0.2123
      7 C         143.5717  139.9076  156.7258 C.ar    1  UNL1        0.1286
      8 N         143.9070  140.9972  155.7510 N.pl3   1  UNL1       -0.3425
      9 C         143.6886  140.1581  158.2001 C.ar    1  UNL1        0.0518
     10 C         144.1047  141.3683  158.9827 C.ar    1  UNL1       -0.0049
     11 C         144.5252  142.6883  158.4077 C.3     1  UNL1        0.0319
     12 H         143.8303  140.8328  154.7834 H       1  UNL1        0.1437
     13 H         144.2038  141.8768  156.0788 H       1  UNL1        0.1437
     14 C         144.3552  141.9450  161.5807 C.2     1  UNL1        0.3470
     15 O         143.4256  143.0690  161.9302 O.2     1  UNL1       -0.2443
     16 O         145.6135  141.7393  162.3708 O.3     1  UNL1       -0.4451
     17 C         145.1387  140.0195  164.2594 C.3     1  UNL1        0.0513
     18 C         145.5360  141.4008  163.8301 C.3     1  UNL1        0.2089
     19 C         142.3318  136.1377  156.7017 C.2     1  UNL1        0.0388
     20 C         143.1719  134.9209  156.9535 C.2     1  UNL1        0.0032
     21 C         142.7196  133.5807  156.4539 C.ar    1  UNL1        0.0032
     22 C         141.6040  133.4900  155.4554 C.ar    1  UNL1        0.0017
     23 C         141.1517  132.1499  154.9559 C.ar    1  UNL1        0.0206
     24 C         141.8151  130.9006  155.4549 C.ar    1  UNL1        0.0994
     25 C         142.9307  130.9913  156.4535 C.ar    1  UNL1        0.1547
     26 C         143.3830  132.3314  156.9530 C.ar    1  UNL1        0.0384
     27 N         141.3628  129.5604  154.9554 N.ar    1  UNL1       -0.2839
     28 C         142.1996  128.5743  154.1956 C.ar    1  UNL1        0.1826
     29 N         141.3483  127.3755  153.8986 N.ar    1  UNL1       -0.2280
     30 C         139.9852  127.6207  154.4749 C.ar    1  UNL1        0.0786
     31 C         138.8181  126.6807  154.4096 C.3     1  UNL1        0.0538
     32 C         139.9942  128.9711  155.1280 C.ar    1  UNL1        0.0963
     33 O         143.5941  129.7419  156.9525 O.3     1  UNL1       -0.4700
     34 C         143.3068  129.2421  158.3373 C.3     1  UNL1        0.2525
@<TRIPOS>BOND
     1    17    18    1
     2    18    16    1
     3    16    14    1
     4    14    15    2
     5    14     1    1
     6     1     2   ar
     7     2     3   ar
     8     3     4   ar
     9     4     5   ar
    10     5    19    1
    11    19    20    2
    12    20    21    1
    13    21    22   ar
    14    22    23   ar
    15    23    24   ar
    16    24    27    1
    17    27    28   ar
    18    28    29   ar
    19    29    30   ar
    20    30    31    1
    21    30    32   ar
    22    24    25   ar
    23    25    33    1
    24    33    34    1
    25    25    26   ar
    26     5     6   ar
    27     6     7   ar
    28     7     8    1
    29     7     9   ar
    30     9    10   ar
    31    10    11    1
    32    10     1   ar
    33     9     3   ar
    34    26    21   ar
    35    32    27   ar
    36     8    12    1
    37     8    13    1
@<TRIPOS>MOLECULE
*****
 34 37 0 0 0
SMALL
GASTEIGER

@<TRIPOS>ATOM
      1 C         141.7902  140.6432  167.8702 C.ar    1  UNL1        0.1026
      2 S         142.3504  140.5391  166.4827 S.2     1  UNL1       -0.0617
      3 C         141.2965  139.9372  165.6012 C.ar    1  UNL1        0.1149
      4 N         141.2836  139.5984  164.1401 N.ar    1  UNL1       -0.2200
      5 C         140.0591  138.9917  163.5217 C.ar    1  UNL1        0.1642
      6 N         138.8475  138.7239  164.3644 N.ar    1  UNL1       -0.2123
      7 C         138.8604  139.0626  165.8256 C.ar    1  UNL1        0.1286
      8 N         137.6488  138.7948  166.6683 N.pl3   1  UNL1       -0.3425
      9 C         140.0849  139.6693  166.4440 C.ar    1  UNL1        0.0518
     10 C         140.3900  140.1057  167.8463 C.ar    1  UNL1       -0.0049
     11 C         139.4585  140.0196  169.0188 C.3     1  UNL1        0.0319
     12 H         136.8451  138.3966  166.2624 H       1  UNL1        0.1437
     13 H         137.6573  139.0171  167.6273 H       1  UNL1        0.1437
     14 C         142.5046  141.1891  169.0709 C.2     1  UNL1        0.3470
     15 O         143.3906  140.2953  169.8871 O.2     1  UNL1       -0.2443
     16 O         142.3331  142.6288  169.4554 O.3     1  UNL1       -0.4451
     17 C         140.2935  144.1958  169.8219 C.3     1  UNL1        0.0513
     18 C         141.1496  143.0504  170.2749 C.3     1  UNL1        0.2089
     19 C         140.0461  138.6529  162.0604 C.2     1  UNL1        0.0388
     20 C         141.2220  139.0051  161.1984 C.2     1  UNL1        0.0032
     21 C         141.2091  138.6663  159.7372 C.ar    1  UNL1        0.0032
     22 C         139.9145  138.3359  159.0554 C.ar    1  UNL1        0.0017
     23 C         139.9015  137.9971  157.5942 C.ar    1  UNL1        0.0206
     24 C         141.1831  137.9887  156.8149 C.ar    1  UNL1        0.0994
     25 C         142.4777  138.3191  157.4967 C.ar    1  UNL1        0.1547
     26 C         142.4907  138.6579  158.9578 C.ar    1  UNL1        0.0384
     27 N         141.1701  137.6499  155.3537 N.ar    1  UNL1       -0.2839
     28 C         140.8342  138.5894  154.2337 C.ar    1  UNL1        0.1826
     29 N         140.9473  137.8323  152.9438 N.ar    1  UNL1       -0.2280
     30 C         141.3531  136.4247  153.2665 C.ar    1  UNL1        0.0786
     31 C         141.5811  135.3232  152.2742 C.3     1  UNL1        0.0538
     32 C         141.4908  136.3120  154.7559 C.ar    1  UNL1        0.0963
     33 O         143.7593  138.3107  156.7173 O.3     1  UNL1       -0.4700
     34 C         144.1694  139.5232  155.9352 C.3     1  UNL1        0.2525
@<TRIPOS>BOND
     1    17    18    1
     2    18    16    1
     3    16    14    1
     4    14    15    2
     5    14     1    1
     6     1     2   ar
     7     2     3   ar
     8     3     4   ar
     9     4     5   ar
    10     5    19    1
    11    19    20    2
    12    20    21    1
    13    21    22   ar
    14    22    23   ar
    15    23    24   ar
    16    24    27    1
    17    27    28   ar
    18    28    29   ar
    19    29    30   ar
    20    30    31    1
    21    30    32   ar
    22    24    25   ar
    23    25    33    1
    24    33    34    1
    25    25    26   ar
    26     5     6   ar
    27     6     7   ar
    28     7     8    1
    29     7     9   ar
    30     9    10   ar
    31    10    11    1
    32    10     1   ar
    33     9     3   ar
    34    26    21   ar
    35    32    27   ar
    36     8    12    1
    37     8    13    1
@<TRIPOS>MOLECULE
*****
 34 37 0 0 0
SMALL
GASTEIGER

@<TRIPOS>ATOM
      1 C         139.7827  145.9023  155.8103 C.ar    1  UNL1        0.1026
      2 S         140.5453  145.8230  157.0995 S.2     1  UNL1       -0.0617
      3 C         139.9772  144.6926  157.9054 C.ar    1  UNL1        0.1149
      4 N         140.3301  144.1472  159.2574 N.ar    1  UNL1       -0.2200
      5 C         139.5692  142.9825  159.8182 C.ar    1  UNL1        0.1642
      6 N         138.4555  142.3632  159.0270 N.ar    1  UNL1       -0.2123
      7 C         138.1025  142.9086  157.6750 C.ar    1  UNL1        0.1286
      8 N         136.9888  142.2893  156.8838 N.pl3   1  UNL1       -0.3425
      9 C         138.8634  144.0733  157.1142 C.ar    1  UNL1        0.0518
     10 C         138.7433  144.8209  155.8194 C.ar    1  UNL1       -0.0049
     11 C         137.7568  144.5370  154.7256 C.3     1  UNL1        0.0319
     12 H         136.4894  141.5248  157.2519 H       1  UNL1        0.1437
     13 H         136.7572  142.6472  155.9964 H       1  UNL1        0.1437
     14 C         140.0183  146.8897  154.7059 C.2     1  UNL1        0.3470
     15 O         141.1323  146.6676  153.7263 O.2     1  UNL1       -0.2443
     16 O         139.1398  148.0991  154.5811 O.3     1  UNL1       -0.4451
     17 C         138.5237  150.3500  155.7229 C.3     1  UNL1        0.0513
     18 C         138.7446  148.8687  155.8065 C.3     1  UNL1        0.2089
     19 C         139.9221  142.4370  161.1703 C.2     1  UNL1        0.0388
     20 C         139.0187  142.6908  162.3405 C.2     1  UNL1        0.0032
     21 C         139.3716  142.1454  163.6926 C.ar    1  UNL1        0.0032
     22 C         140.0123  143.0350  164.7163 C.ar    1  UNL1        0.0017
     23 C         140.3651  142.4896  166.0683 C.ar    1  UNL1        0.0206
     24 C         140.0774  141.0546  166.3966 C.ar    1  UNL1        0.0994
     25 C         139.4368  140.1649  165.3728 C.ar    1  UNL1        0.1547
     26 C         139.0839  140.7103  164.0208 C.ar    1  UNL1        0.0384
     27 N         140.4303  140.5091  167.7487 N.ar    1  UNL1       -0.2839
     28 C         139.5224  140.4535  168.9414 C.ar    1  UNL1        0.1826
     29 N         140.2840  139.8336  170.0752 N.ar    1  UNL1       -0.2280
     30 C         141.6627  139.5060  169.5832 C.ar    1  UNL1        0.0786
     31 C         142.7585  138.8722  170.3878 C.3     1  UNL1        0.0538
     32 C         141.7531  139.9235  168.1453 C.ar    1  UNL1        0.0963
     33 O         139.1490  138.7298  165.7011 O.3     1  UNL1       -0.4700
     34 C         137.9143  138.3701  166.4732 C.3     1  UNL1        0.2525
@<TRIPOS>BOND
     1    17    18    1
     2    18    16    1
     3    16    14    1
     4    14    15    2
     5    14     1    1
     6     1     2   ar
     7     2     3   ar
     8     3     4   ar
     9     4     5   ar
    10     5    19    1
    11    19    20    2
    12    20    21    1
    13    21    22   ar
    14    22    23   ar
    15    23    24   ar
    16    24    27    1
    17    27    28   ar
    18    28    29   ar
    19    29    30   ar
    20    30    31    1
    21    30    32   ar
    22    24    25   ar
    23    25    33    1
    24    33    34    1
    25    25    26   ar
    26     5     6   ar
    27     6     7   ar
    28     7     8    1
    29     7     9   ar
    30     9    10   ar
    31    10    11    1
    32    10     1   ar
    33     9     3   ar
    34    26    21   ar
    35    32    27   ar
    36     8    12    1
    37     8    13    1
@<TRIPOS>MOLECULE
*****
 34 37 0 0 0
SMALL
GASTEIGER

@<TRIPOS>ATOM
      1 C         139.6815  140.4068  168.2666 C.ar    1  UNL1        0.1026
      2 S         139.3667  139.3758  167.2237 S.2     1  UNL1       -0.0617
      3 C         139.7381  139.9419  165.8852 C.ar    1  UNL1        0.1149
      4 N         139.6510  139.3783  164.4978 N.ar    1  UNL1       -0.2200
      5 C         140.1081  140.1958  163.3262 C.ar    1  UNL1        0.1642
      6 N         140.6524  141.5768  163.5419 N.ar    1  UNL1       -0.2123
      7 C         140.7396  142.1403  164.9293 C.ar    1  UNL1        0.1286
      8 N         141.2839  143.5213  165.1450 N.pl3   1  UNL1       -0.3425
      9 C         140.2824  141.3229  166.1009 C.ar    1  UNL1        0.0518
     10 C         140.2474  141.6102  167.5727 C.ar    1  UNL1       -0.0049
     11 C         140.6991  142.8784  168.2344 C.3     1  UNL1        0.0319
     12 H         141.5840  144.0579  164.3760 H       1  UNL1        0.1437
     13 H         141.3411  143.8912  166.0556 H       1  UNL1        0.1437
     14 C         139.4679  140.2603  169.7441 C.2     1  UNL1        0.3470
     15 O         138.1518  140.6433  170.3532 O.2     1  UNL1       -0.2443
     16 O         140.5704  139.7307  170.6124 O.3     1  UNL1       -0.4451
     17 C         142.9787  140.5765  170.1280 C.3     1  UNL1        0.0513
     18 C         141.7345  140.6084  170.9653 C.3     1  UNL1        0.2089
     19 C         140.0210  139.6322  161.9388 C.2     1  UNL1        0.0388
     20 C         141.2683  139.4373  161.1288 C.2     1  UNL1        0.0032
     21 C         141.1811  138.8737  159.7413 C.ar    1  UNL1        0.0032
     22 C         139.8419  138.5698  159.1380 C.ar    1  UNL1        0.0017
     23 C         139.7547  138.0063  157.7507 C.ar    1  UNL1        0.0206
     24 C         141.0068  137.7466  156.9666 C.ar    1  UNL1        0.0994
     25 C         142.3461  138.0505  157.5699 C.ar    1  UNL1        0.1547
     26 C         142.4333  138.6141  158.9573 C.ar    1  UNL1        0.0384
     27 N         140.9196  137.1831  155.5792 N.ar    1  UNL1       -0.2839
     28 C         140.4579  137.9186  154.3562 C.ar    1  UNL1        0.1826
     29 N         140.5318  136.9751  153.1924 N.ar    1  UNL1       -0.2280
     30 C         141.0393  135.6565  153.6961 C.ar    1  UNL1        0.0786
     31 C         141.2672  134.4255  152.8698 C.3     1  UNL1        0.0538
     32 C         141.2790  135.7851  155.1712 C.ar    1  UNL1        0.0963
     33 O         143.5982  137.7909  156.7858 O.3     1  UNL1       -0.4700
     34 C         143.9761  138.6995  155.6537 C.3     1  UNL1        0.2525
@<TRIPOS>BOND
     1    17    18    1
     2    18    16    1
     3    16    14    1
     4    14    15    2
     5    14     1    1
     6     1     2   ar
     7     2     3   ar
     8     3     4   ar
     9     4     5   ar
    10     5    19    1
    11    19    20    2
    12    20    21    1
    13    21    22   ar
    14    22    23   ar
    15    23    24   ar
    16    24    27    1
    17    27    28   ar
    18    28    29   ar
    19    29    30   ar
    20    30    31    1
    21    30    32   ar
    22    24    25   ar
    23    25    33    1
    24    33    34    1
    25    25    26   ar
    26     5     6   ar
    27     6     7   ar
    28     7     8    1
    29     7     9   ar
    30     9    10   ar
    31    10    11    1
    32    10     1   ar
    33     9     3   ar
    34    26    21   ar
    35    32    27   ar
    36     8    12    1
    37     8    13    1
@<TRIPOS>MOLECULE
*****
 34 37 0 0 0
SMALL
GASTEIGER

@<TRIPOS>ATOM
      1 C         142.5967  131.2251  155.2628 C.ar    1  UNL1        0.1026
      2 S         142.8498  132.0702  156.4760 S.2     1  UNL1       -0.0617
      3 C         142.7285  133.5096  156.0718 C.ar    1  UNL1        0.1149
      4 N         142.8743  134.7855  156.8469 N.ar    1  UNL1       -0.2200
      5 C         142.6921  136.1059  156.1590 C.ar    1  UNL1        0.1642
      6 N         142.3641  136.1505  154.6959 N.ar    1  UNL1       -0.2123
      7 C         142.2183  134.8746  153.9208 C.ar    1  UNL1        0.1286
      8 N         141.8902  134.9191  152.4578 N.pl3   1  UNL1       -0.3425
      9 C         142.4004  133.5542  154.6088 C.ar    1  UNL1        0.0518
     10 C         142.3190  132.1423  154.1088 C.ar    1  UNL1       -0.0049
     11 C         142.0135  131.7215  152.7018 C.3     1  UNL1        0.0319
     12 H         141.7707  135.7858  152.0063 H       1  UNL1        0.1437
     13 H         141.7945  134.0817  151.9491 H       1  UNL1        0.1437
     14 C         142.6177  129.7261  155.2125 C.2     1  UNL1        0.3470
     15 O         143.8339  129.0097  154.7050 O.2     1  UNL1       -0.2443
     16 O         141.4225  128.9436  155.6695 O.3     1  UNL1       -0.4451
     17 C         139.9584  128.6983  153.5373 C.3     1  UNL1        0.0513
     18 C         140.1051  129.1107  154.9721 C.3     1  UNL1        0.2089
     19 C         142.8380  137.3819  156.9341 C.2     1  UNL1        0.0388
     20 C         142.6792  137.3757  158.4256 C.2     1  UNL1        0.0032
     21 C         142.8250  138.6517  159.2007 C.ar    1  UNL1        0.0032
     22 C         142.1414  139.8997  158.7263 C.ar    1  UNL1        0.0017
     23 C         142.2872  141.1756  159.5013 C.ar    1  UNL1        0.0206
     24 C         143.1167  141.2035  160.7508 C.ar    1  UNL1        0.0994
     25 C         143.8003  139.9555  161.2252 C.ar    1  UNL1        0.1547
     26 C         143.6545  138.6796  160.4502 C.ar    1  UNL1        0.0384
     27 N         143.2625  142.4795  161.5259 N.ar    1  UNL1       -0.2839
     28 C         144.5170  143.2907  161.6607 C.ar    1  UNL1        0.1826
     29 N         144.2092  144.4808  162.5203 N.ar    1  UNL1       -0.2280
     30 C         142.7645  144.4050  162.9169 C.ar    1  UNL1        0.0786
     31 C         142.0333  145.3927  163.7770 C.3     1  UNL1        0.0538
     32 C         142.1795  143.1681  162.3023 C.ar    1  UNL1        0.0963
     33 O         144.6298  139.9834  162.4747 O.3     1  UNL1       -0.4700
     34 C         144.1645  139.2543  163.7002 C.3     1  UNL1        0.2525
@<TRIPOS>BOND
     1    17    18    1
     2    18    16    1
     3    16    14    1
     4    14    15    2
     5    14     1    1
     6     1     2   ar
     7     2     3   ar
     8     3     4   ar
     9     4     5   ar
    10     5    19    1
    11    19    20    2
    12    20    21    1
    13    21    22   ar
    14    22    23   ar
    15    23    24   ar
    16    24    27    1
    17    27    28   ar
    18    28    29   ar
    19    29    30   ar
    20    30    31    1
    21    30    32   ar
    22    24    25   ar
    23    25    33    1
    24    33    34    1
    25    25    26   ar
    26     5     6   ar
    27     6     7   ar
    28     7     8    1
    29     7     9   ar
    30     9    10   ar
    31    10    11    1
    32    10     1   ar
    33     9     3   ar
    34    26    21   ar
    35    32    27   ar
    36     8    12    1
    37     8    13    1
