@<TRIPOS>MOLECULE
*****
 34 38 0 0 0
SMALL
GASTEIGER

@<TRIPOS>ATOM
      1 C         142.7424  139.3854  158.5954 C.2     1  UNL1        0.3047
      2 O         143.7298  140.5072  158.7239 O.2     1  UNL1       -0.2647
      3 N         141.4621  139.4200  159.3764 N.am    1  UNL1       -0.2647
      4 C         140.8404  140.3745  160.3522 C.3     1  UNL1        0.1391
      5 C         139.6516  139.4689  160.4806 C.3     1  UNL1        0.2052
      6 C         140.2733  138.5143  159.5048 C.3     1  UNL1        0.1391
      7 C         143.1092  135.9922  156.7469 C.ar    1  UNL1        0.2501
      8 N         143.8626  136.9065  155.8267 N.ar    1  UNL1       -0.1068
      9 N         143.8169  138.2889  156.4073 N.ar    1  UNL1       -0.1021
     10 C         143.0352  138.2290  157.6861 C.ar    1  UNL1        0.3043
     11 O         142.5979  136.8096  157.8960 O.2     1  UNL1       -0.4122
     12 C         142.4915  131.5733  156.1623 C.ar    1  UNL1        0.1387
     13 C         141.6623  132.5553  155.3890 C.ar    1  UNL1        0.0371
     14 C         141.8682  134.0283  155.5838 C.ar    1  UNL1        0.0078
     15 C         142.9033  134.5193  156.5520 C.ar    1  UNL1        0.0553
     16 C         143.7325  133.5373  157.3253 C.ar    1  UNL1        0.0078
     17 C         143.5266  132.0643  157.1305 C.ar    1  UNL1        0.0371
     18 C         143.1555  129.1187  156.6953 C.3     1  UNL1        0.2525
     19 O         142.2856  130.1003  155.9675 O.3     1  UNL1       -0.4714
     20 O         138.3714  139.5035  161.2615 O.3     1  UNL1       -0.4756
     21 C         138.4047  139.4395  162.7598 C.ar    1  UNL1        0.1385
     22 C         138.7420  138.1501  163.4481 C.ar    1  UNL1        0.0366
     23 C         138.7754  138.0861  164.9463 C.ar    1  UNL1        0.0002
     24 C         138.4714  139.3115  165.7564 C.ar    1  UNL1       -0.0059
     25 C         138.1342  140.6009  165.0681 C.ar    1  UNL1        0.0002
     26 C         138.1008  140.6648  163.5698 C.ar    1  UNL1        0.0366
     27 C         138.5048  139.2475  167.2546 C.3     1  UNL1        0.0992
     28 N         139.6678  139.8266  168.0043 N.3     1  UNL1       -0.2667
     29 C         140.9874  139.7839  167.2924 C.3     1  UNL1        0.0750
     30 C         142.3226  140.2759  167.7672 C.3     1  UNL1        0.0494
     31 C         142.6678  140.9321  169.0710 C.3     1  UNL1        0.1437
     32 O         141.7632  141.2585  170.2222 O.3     1  UNL1       -0.3522
     33 C         140.2899  141.0092  170.3538 C.3     1  UNL1        0.1594
     34 C         139.3574  140.3719  169.3667 C.3     1  UNL1        0.1048
@<TRIPOS>BOND
     1    18    19    1
     2    19    12    1
     3    12    13   ar
     4    13    14   ar
     5    14    15   ar
     6    15     7    1
     7     7     8   ar
     8     8     9   ar
     9     9    10   ar
    10    10     1    1
    11     1     2    2
    12     1     3   am
    13     3     4    1
    14     4     5    1
    15     5    20    1
    16    20    21    1
    17    21    22   ar
    18    22    23   ar
    19    23    24   ar
    20    24    27    1
    21    27    28    1
    22    28    29    1
    23    29    30    1
    24    30    31    1
    25    31    32    1
    26    32    33    1
    27    33    34    1
    28    24    25   ar
    29    25    26   ar
    30     5     6    1
    31    10    11   ar
    32    15    16   ar
    33    16    17   ar
    34    17    12   ar
    35    11     7   ar
    36     6     3    1
    37    26    21   ar
    38    34    28    1
@<TRIPOS>MOLECULE
*****
 34 38 0 0 0
SMALL
GASTEIGER

@<TRIPOS>ATOM
      1 C         142.3654  139.6778  158.2284 C.2     1  UNL1        0.3047
      2 O         141.2031  140.4805  157.7239 O.2     1  UNL1       -0.2647
      3 N         143.0648  140.0834  159.4921 N.am    1  UNL1       -0.2647
      4 C         142.8957  141.1910  160.4893 C.3     1  UNL1        0.1391
      5 C         144.0537  140.6568  161.2789 C.3     1  UNL1        0.2052
      6 C         144.2229  139.5491  160.2817 C.3     1  UNL1        0.1391
      7 C         143.0481  136.1867  156.6758 C.ar    1  UNL1        0.2501
      8 N         144.0339  137.0344  155.9276 N.ar    1  UNL1       -0.1068
      9 N         143.8982  138.4454  156.4183 N.ar    1  UNL1       -0.1021
     10 C         142.8285  138.4697  157.4696 C.ar    1  UNL1        0.3043
     11 O         142.3032  137.0738  157.6286 O.2     1  UNL1       -0.4122
     12 C         142.4337  131.7596  156.1529 C.ar    1  UNL1        0.1387
     13 C         141.6350  132.7296  155.3336 C.ar    1  UNL1        0.0371
     14 C         141.8398  134.2053  155.5078 C.ar    1  UNL1        0.0078
     15 C         142.8433  134.7110  156.5015 C.ar    1  UNL1        0.0553
     16 C         143.6419  133.7411  157.3208 C.ar    1  UNL1        0.0078
     17 C         143.4371  132.2654  157.1465 C.ar    1  UNL1        0.0371
     18 C         143.4051  129.3538  156.0168 C.3     1  UNL1        0.2525
     19 O         142.2288  130.2839  155.9786 O.3     1  UNL1       -0.4714
     20 O         144.7530  141.0623  162.5424 O.3     1  UNL1       -0.4756
     21 C         144.2034  140.6396  163.8727 C.ar    1  UNL1        0.1385
     22 C         144.3007  139.2060  164.3031 C.ar    1  UNL1        0.0366
     23 C         143.7512  138.7834  165.6332 C.ar    1  UNL1        0.0002
     24 C         143.1043  139.7944  166.5330 C.ar    1  UNL1       -0.0059
     25 C         143.0070  141.2280  166.1026 C.ar    1  UNL1        0.0002
     26 C         143.5566  141.6506  164.7723 C.ar    1  UNL1        0.0366
     27 C         142.5548  139.3718  167.8631 C.3     1  UNL1        0.0992
     28 N         141.9407  140.3891  168.7785 N.3     1  UNL1       -0.2667
     29 C         140.4427  140.3736  168.8572 C.3     1  UNL1        0.0750
     30 C         139.5399  141.2526  169.6710 C.3     1  UNL1        0.0494
     31 C         139.9119  142.3641  170.6069 C.3     1  UNL1        0.1437
     32 O         141.2786  142.8713  170.9604 O.3     1  UNL1       -0.3522
     33 C         142.6109  142.3921  170.4651 C.3     1  UNL1        0.1594
     34 C         142.9055  141.2874  169.4940 C.3     1  UNL1        0.1048
@<TRIPOS>BOND
     1    18    19    1
     2    19    12    1
     3    12    13   ar
     4    13    14   ar
     5    14    15   ar
     6    15     7    1
     7     7     8   ar
     8     8     9   ar
     9     9    10   ar
    10    10     1    1
    11     1     2    2
    12     1     3   am
    13     3     4    1
    14     4     5    1
    15     5    20    1
    16    20    21    1
    17    21    22   ar
    18    22    23   ar
    19    23    24   ar
    20    24    27    1
    21    27    28    1
    22    28    29    1
    23    29    30    1
    24    30    31    1
    25    31    32    1
    26    32    33    1
    27    33    34    1
    28    24    25   ar
    29    25    26   ar
    30     5     6    1
    31    10    11   ar
    32    15    16   ar
    33    16    17   ar
    34    17    12   ar
    35    11     7   ar
    36     6     3    1
    37    26    21   ar
    38    34    28    1
@<TRIPOS>MOLECULE
*****
 34 38 0 0 0
SMALL
GASTEIGER

@<TRIPOS>ATOM
      1 C         142.9646  139.0637  158.0828 C.2     1  UNL1        0.3047
      2 O         142.9551  140.3537  157.3174 O.2     1  UNL1       -0.2647
      3 N         143.3689  139.0518  159.5273 N.am    1  UNL1       -0.2647
      4 C         143.8120  140.0916  160.5133 C.3     1  UNL1        0.1391
      5 C         143.9406  139.0348  161.5700 C.3     1  UNL1        0.2052
      6 C         143.4975  137.9949  160.5840 C.3     1  UNL1        0.1391
      7 C         142.5174  135.4597  156.7130 C.ar    1  UNL1        0.2501
      8 N         141.4076  136.1787  156.0049 N.ar    1  UNL1       -0.1068
      9 N         141.4400  137.6163  156.4319 N.ar    1  UNL1       -0.1021
     10 C         142.5699  137.7858  157.4038 C.ar    1  UNL1        0.3043
     11 O         143.2357  136.4530  157.5775 O.2     1  UNL1       -0.4122
     12 C         143.5165  131.0902  156.3137 C.ar    1  UNL1        0.1387
     13 C         142.3176  131.6530  155.6093 C.ar    1  UNL1        0.0371
     14 C         141.9846  133.1095  155.7424 C.ar    1  UNL1        0.0078
     15 C         142.8505  134.0032  156.5799 C.ar    1  UNL1        0.0553
     16 C         144.0493  133.4406  157.2842 C.ar    1  UNL1        0.0078
     17 C         144.3823  131.9841  157.1511 C.ar    1  UNL1        0.0371
     18 C         143.3150  128.6481  157.1770 C.3     1  UNL1        0.2525
     19 O         143.8495  129.6337  156.1806 O.3     1  UNL1       -0.4714
     20 O         144.3449  139.0228  163.0144 O.3     1  UNL1       -0.4756
     21 C         143.3062  139.1792  164.0853 C.ar    1  UNL1        0.1385
     22 C         143.6627  138.9212  165.5193 C.ar    1  UNL1        0.0366
     23 C         142.6241  139.0775  166.5902 C.ar    1  UNL1        0.0002
     24 C         141.2288  139.4919  166.2270 C.ar    1  UNL1       -0.0059
     25 C         140.8723  139.7498  164.7930 C.ar    1  UNL1        0.0002
     26 C         141.9111  139.5935  163.7222 C.ar    1  UNL1        0.0366
     27 C         140.1902  139.6482  167.2978 C.3     1  UNL1        0.0992
     28 N         140.3596  140.6937  168.3601 N.3     1  UNL1       -0.2667
     29 C         140.2904  142.1164  167.8897 C.3     1  UNL1        0.0750
     30 C         140.4203  143.3751  168.6953 C.3     1  UNL1        0.0494
     31 C         140.6513  143.5219  170.1700 C.3     1  UNL1        0.1437
     32 O         140.8096  142.4464  171.2036 O.3     1  UNL1       -0.3522
     33 C         140.7759  140.9583  171.0175 C.3     1  UNL1        0.1594
     34 C         140.5756  140.1784  169.7520 C.3     1  UNL1        0.1048
@<TRIPOS>BOND
     1    18    19    1
     2    19    12    1
     3    12    13   ar
     4    13    14   ar
     5    14    15   ar
     6    15     7    1
     7     7     8   ar
     8     8     9   ar
     9     9    10   ar
    10    10     1    1
    11     1     2    2
    12     1     3   am
    13     3     4    1
    14     4     5    1
    15     5    20    1
    16    20    21    1
    17    21    22   ar
    18    22    23   ar
    19    23    24   ar
    20    24    27    1
    21    27    28    1
    22    28    29    1
    23    29    30    1
    24    30    31    1
    25    31    32    1
    26    32    33    1
    27    33    34    1
    28    24    25   ar
    29    25    26   ar
    30     5     6    1
    31    10    11   ar
    32    15    16   ar
    33    16    17   ar
    34    17    12   ar
    35    11     7   ar
    36     6     3    1
    37    26    21   ar
    38    34    28    1
@<TRIPOS>MOLECULE
*****
 34 38 0 0 0
SMALL
GASTEIGER

@<TRIPOS>ATOM
      1 C         139.6462  139.1017  157.9245 C.2     1  UNL1        0.3047
      2 O         139.0061  139.9945  156.9033 O.2     1  UNL1       -0.2647
      3 N         139.1438  139.0982  159.3379 N.am    1  UNL1       -0.2647
      4 C         138.0609  139.8233  160.0805 C.3     1  UNL1        0.1391
      5 C         138.4335  139.0933  161.3367 C.3     1  UNL1        0.2052
      6 C         139.5164  138.3681  160.5942 C.3     1  UNL1        0.1391
      7 C         142.0638  136.3585  156.6223 C.ar    1  UNL1        0.2501
      8 N         143.0296  137.3286  157.2356 N.ar    1  UNL1       -0.1068
      9 N         142.2415  138.4744  157.7980 N.ar    1  UNL1       -0.1021
     10 C         140.7886  138.2123  157.5324 C.ar    1  UNL1        0.3043
     11 O         140.6788  136.9047  156.8058 O.2     1  UNL1       -0.4122
     12 C         143.1336  132.4891  154.5892 C.ar    1  UNL1        0.1387
     13 C         141.9562  133.2868  154.1118 C.ar    1  UNL1        0.0371
     14 C         141.5996  134.5766  154.7896 C.ar    1  UNL1        0.0078
     15 C         142.4204  135.0687  155.9446 C.ar    1  UNL1        0.0553
     16 C         143.5976  134.2712  156.4219 C.ar    1  UNL1        0.0078
     17 C         143.9542  132.9814  155.7442 C.ar    1  UNL1        0.0371
     18 C         142.4539  130.4552  153.1226 C.3     1  UNL1        0.2525
     19 O         143.4902  131.1994  153.9114 O.3     1  UNL1       -0.4714
     20 O         137.9312  139.0898  162.7501 O.3     1  UNL1       -0.4756
     21 C         138.8740  139.3731  163.8819 C.ar    1  UNL1        0.1385
     22 C         140.3236  139.6380  163.6020 C.ar    1  UNL1        0.0366
     23 C         141.2664  139.9213  164.7337 C.ar    1  UNL1        0.0002
     24 C         140.7595  139.9396  166.1454 C.ar    1  UNL1       -0.0059
     25 C         139.3099  139.6746  166.4253 C.ar    1  UNL1        0.0002
     26 C         138.3672  139.3913  165.2935 C.ar    1  UNL1        0.0366
     27 C         141.7023  140.2228  167.2772 C.3     1  UNL1        0.0992
     28 N         141.2078  140.9234  168.5079 N.3     1  UNL1       -0.2667
     29 C         140.8953  142.3815  168.3454 C.3     1  UNL1        0.0750
     30 C         140.3890  143.3496  169.3733 C.3     1  UNL1        0.0494
     31 C         140.0701  143.0987  170.8173 C.3     1  UNL1        0.1437
     32 O         140.1788  141.8178  171.5903 O.3     1  UNL1       -0.3522
     33 C         140.6331  140.4714  171.1100 C.3     1  UNL1        0.1594
     34 C         141.0911  140.0734  169.7381 C.3     1  UNL1        0.1048
@<TRIPOS>BOND
     1    18    19    1
     2    19    12    1
     3    12    13   ar
     4    13    14   ar
     5    14    15   ar
     6    15     7    1
     7     7     8   ar
     8     8     9   ar
     9     9    10   ar
    10    10     1    1
    11     1     2    2
    12     1     3   am
    13     3     4    1
    14     4     5    1
    15     5    20    1
    16    20    21    1
    17    21    22   ar
    18    22    23   ar
    19    23    24   ar
    20    24    27    1
    21    27    28    1
    22    28    29    1
    23    29    30    1
    24    30    31    1
    25    31    32    1
    26    32    33    1
    27    33    34    1
    28    24    25   ar
    29    25    26   ar
    30     5     6    1
    31    10    11   ar
    32    15    16   ar
    33    16    17   ar
    34    17    12   ar
    35    11     7   ar
    36     6     3    1
    37    26    21   ar
    38    34    28    1
@<TRIPOS>MOLECULE
*****
 34 38 0 0 0
SMALL
GASTEIGER

@<TRIPOS>ATOM
      1 C         138.4478  139.1467  160.7161 C.2     1  UNL1        0.3047
      2 O         137.0720  139.5336  160.2605 O.2     1  UNL1       -0.2647
      3 N         139.5456  138.9597  159.7112 N.am    1  UNL1       -0.2647
      4 C         139.6468  139.0670  158.2185 C.3     1  UNL1        0.1391
      5 C         141.0982  138.6952  158.2902 C.3     1  UNL1        0.2052
      6 C         140.9971  138.5878  159.7829 C.3     1  UNL1        0.1391
      7 C         139.2766  139.3748  164.5011 C.ar    1  UNL1        0.2501
      8 N         139.0301  137.9033  164.3466 N.ar    1  UNL1       -0.1068
      9 N         138.6896  137.6387  162.9099 N.ar    1  UNL1       -0.1021
     10 C         138.7257  138.9467  162.1765 C.ar    1  UNL1        0.3043
     11 O         139.0885  140.0196  163.1599 O.2     1  UNL1       -0.4122
     12 C         140.3859  141.4844  168.3181 C.ar    1  UNL1        0.1387
     13 C         139.5211  140.2595  168.3621 C.ar    1  UNL1        0.0371
     14 C         139.1513  139.5563  167.0897 C.ar    1  UNL1        0.0078
     15 C         139.6464  140.0780  165.7734 C.ar    1  UNL1        0.0553
     16 C         140.5111  141.3028  165.7294 C.ar    1  UNL1        0.0078
     17 C         140.8808  142.0060  167.0017 C.ar    1  UNL1        0.0371
     18 C         140.3413  143.6128  169.8073 C.3     1  UNL1        0.2525
     19 O         140.7556  142.1876  169.5904 O.3     1  UNL1       -0.4714
     20 O         142.1960  138.5082  157.2853 O.3     1  UNL1       -0.4756
     21 C         142.2642  137.2479  156.4747 C.ar    1  UNL1        0.1385
     22 C         141.0007  136.5739  156.0285 C.ar    1  UNL1        0.0366
     23 C         141.0688  135.3136  155.2179 C.ar    1  UNL1        0.0002
     24 C         142.4006  134.7273  154.8535 C.ar    1  UNL1       -0.0059
     25 C         143.6641  135.4013  155.2997 C.ar    1  UNL1        0.0002
     26 C         143.5959  136.6617  156.1103 C.ar    1  UNL1        0.0366
     27 C         142.4687  133.4671  154.0429 C.3     1  UNL1        0.0992
     28 N         142.9648  132.1979  154.6699 N.3     1  UNL1       -0.2667
     29 C         142.7437  132.0728  156.1483 C.3     1  UNL1        0.0750
     30 C         143.1196  130.9404  157.0576 C.3     1  UNL1        0.0494
     31 C         143.8093  129.6539  156.7131 C.3     1  UNL1        0.1437
     32 O         144.2936  129.1816  155.3743 O.3     1  UNL1       -0.3522
     33 C         144.2078  129.8794  154.0493 C.3     1  UNL1        0.1594
     34 C         143.6164  131.2218  153.7359 C.3     1  UNL1        0.1048
@<TRIPOS>BOND
     1    18    19    1
     2    19    12    1
     3    12    13   ar
     4    13    14   ar
     5    14    15   ar
     6    15     7    1
     7     7     8   ar
     8     8     9   ar
     9     9    10   ar
    10    10     1    1
    11     1     2    2
    12     1     3   am
    13     3     4    1
    14     4     5    1
    15     5    20    1
    16    20    21    1
    17    21    22   ar
    18    22    23   ar
    19    23    24   ar
    20    24    27    1
    21    27    28    1
    22    28    29    1
    23    29    30    1
    24    30    31    1
    25    31    32    1
    26    32    33    1
    27    33    34    1
    28    24    25   ar
    29    25    26   ar
    30     5     6    1
    31    10    11   ar
    32    15    16   ar
    33    16    17   ar
    34    17    12   ar
    35    11     7   ar
    36     6     3    1
    37    26    21   ar
    38    34    28    1
@<TRIPOS>MOLECULE
*****
 34 38 0 0 0
SMALL
GASTEIGER

@<TRIPOS>ATOM
      1 C         142.6263  143.7601  160.0017 C.2     1  UNL1        0.3047
      2 O         141.6989  144.8604  159.5785 O.2     1  UNL1       -0.2647
      3 N         143.1551  142.7923  158.9849 N.am    1  UNL1       -0.2647
      4 C         142.9876  142.6113  157.5053 C.3     1  UNL1        0.1391
      5 C         143.9029  141.4238  157.5470 C.3     1  UNL1        0.2052
      6 C         144.0705  141.6047  159.0266 C.3     1  UNL1        0.1391
      7 C         142.9383  143.2196  163.8326 C.ar    1  UNL1        0.2501
      8 N         144.3387  143.6275  163.4825 N.ar    1  UNL1       -0.1068
      9 N         144.3923  143.8796  162.0047 N.ar    1  UNL1       -0.1021
     10 C         143.0250  143.6276  161.4416 C.ar    1  UNL1        0.3043
     11 O         142.1265  143.2197  162.5713 O.2     1  UNL1       -0.4122
     12 C         141.4367  142.1787  167.9450 C.ar    1  UNL1        0.1387
     13 C         140.4709  142.6062  166.8798 C.ar    1  UNL1        0.0371
     14 C         140.9715  142.9532  165.5090 C.ar    1  UNL1        0.0078
     15 C         142.4378  142.8726  165.2034 C.ar    1  UNL1        0.0553
     16 C         143.4035  142.4451  166.2685 C.ar    1  UNL1        0.0078
     17 C         142.9029  142.0981  167.6393 C.ar    1  UNL1        0.0371
     18 C         141.8161  141.0754  170.2663 C.3     1  UNL1        0.2525
     19 O         140.9361  141.8317  169.3158 O.3     1  UNL1       -0.4714
     20 O         144.4317  140.4560  156.5302 O.3     1  UNL1       -0.4756
     21 C         143.8110  139.0972  156.3942 C.ar    1  UNL1        0.1385
     22 C         142.6785  138.6966  157.2925 C.ar    1  UNL1        0.0366
     23 C         142.0578  137.3379  157.1566 C.ar    1  UNL1        0.0002
     24 C         142.5697  136.3796  156.1222 C.ar    1  UNL1       -0.0059
     25 C         143.7022  136.7802  155.2239 C.ar    1  UNL1        0.0002
     26 C         144.3228  138.1390  155.3599 C.ar    1  UNL1        0.0366
     27 C         141.9490  135.0209  155.9862 C.3     1  UNL1        0.0992
     28 N         142.7335  133.7974  156.3572 N.3     1  UNL1       -0.2667
     29 C         143.7516  133.9817  157.4433 C.3     1  UNL1        0.0750
     30 C         144.6839  132.9655  158.0336 C.3     1  UNL1        0.0494
     31 C         144.8283  131.5142  157.6834 C.3     1  UNL1        0.1437
     32 O         144.0762  130.7205  156.6565 O.3     1  UNL1       -0.3522
     33 C         142.9939  131.1821  155.7263 C.3     1  UNL1        0.1594
     34 C         142.3964  132.5515  155.5931 C.3     1  UNL1        0.1048
@<TRIPOS>BOND
     1    18    19    1
     2    19    12    1
     3    12    13   ar
     4    13    14   ar
     5    14    15   ar
     6    15     7    1
     7     7     8   ar
     8     8     9   ar
     9     9    10   ar
    10    10     1    1
    11     1     2    2
    12     1     3   am
    13     3     4    1
    14     4     5    1
    15     5    20    1
    16    20    21    1
    17    21    22   ar
    18    22    23   ar
    19    23    24   ar
    20    24    27    1
    21    27    28    1
    22    28    29    1
    23    29    30    1
    24    30    31    1
    25    31    32    1
    26    32    33    1
    27    33    34    1
    28    24    25   ar
    29    25    26   ar
    30     5     6    1
    31    10    11   ar
    32    15    16   ar
    33    16    17   ar
    34    17    12   ar
    35    11     7   ar
    36     6     3    1
    37    26    21   ar
    38    34    28    1
@<TRIPOS>MOLECULE
*****
 34 38 0 0 0
SMALL
GASTEIGER

@<TRIPOS>ATOM
      1 C         138.7459  139.2536  160.7566 C.2     1  UNL1        0.3047
      2 O         137.4449  139.8920  160.3698 O.2     1  UNL1       -0.2647
      3 N         139.8040  139.0194  159.7194 N.am    1  UNL1       -0.2647
      4 C         139.9218  139.2794  158.2468 C.3     1  UNL1        0.1391
      5 C         141.3002  138.6882  158.2527 C.3     1  UNL1        0.2052
      6 C         141.1825  138.4280  159.7252 C.3     1  UNL1        0.1391
      7 C         139.7607  138.8534  164.4815 C.ar    1  UNL1        0.2501
      8 N         138.9652  137.6009  164.2618 N.ar    1  UNL1       -0.1068
      9 N         138.4882  137.5984  162.8396 N.ar    1  UNL1       -0.1021
     10 C         138.9889  138.8493  162.1805 C.ar    1  UNL1        0.3043
     11 O         139.7754  139.6249  163.1952 O.2     1  UNL1       -0.4122
     12 C         141.7534  140.0809  168.3251 C.ar    1  UNL1        0.1387
     13 C         140.2636  140.1865  168.1856 C.ar    1  UNL1        0.0371
     14 C         139.5993  139.7773  166.9044 C.ar    1  UNL1        0.0078
     15 C         140.4249  139.2626  165.7627 C.ar    1  UNL1        0.0553
     16 C         141.9146  139.1569  165.9022 C.ar    1  UNL1        0.0078
     17 C         142.5788  139.5661  167.1834 C.ar    1  UNL1        0.0371
     18 C         143.3167  141.6903  169.6349 C.3     1  UNL1        0.2525
     19 O         142.4176  140.4900  169.6063 O.3     1  UNL1       -0.4714
     20 O         142.3583  138.4540  157.2155 O.3     1  UNL1       -0.4756
     21 C         142.3728  137.1732  156.4348 C.ar    1  UNL1        0.1385
     22 C         143.6790  136.5427  156.0523 C.ar    1  UNL1        0.0366
     23 C         143.6935  135.2620  155.2716 C.ar    1  UNL1        0.0002
     24 C         142.4017  134.6117  154.8733 C.ar    1  UNL1       -0.0059
     25 C         141.0955  135.2422  155.2558 C.ar    1  UNL1        0.0002
     26 C         141.0811  136.5230  156.0365 C.ar    1  UNL1        0.0366
     27 C         142.4162  133.3310  154.0926 C.3     1  UNL1        0.0992
     28 N         142.9913  132.0872  154.7026 N.3     1  UNL1       -0.2667
     29 C         143.7023  131.1666  153.7554 C.3     1  UNL1        0.0750
     30 C         144.3770  129.8598  154.0509 C.3     1  UNL1        0.0494
     31 C         144.5073  129.1510  155.3663 C.3     1  UNL1        0.1437
     32 O         143.9953  129.5738  156.7113 O.3     1  UNL1       -0.3522
     33 C         143.2263  130.8099  157.0730 C.3     1  UNL1        0.1594
     34 C         142.7795  131.9284  156.1790 C.3     1  UNL1        0.1048
@<TRIPOS>BOND
     1    18    19    1
     2    19    12    1
     3    12    13   ar
     4    13    14   ar
     5    14    15   ar
     6    15     7    1
     7     7     8   ar
     8     8     9   ar
     9     9    10   ar
    10    10     1    1
    11     1     2    2
    12     1     3   am
    13     3     4    1
    14     4     5    1
    15     5    20    1
    16    20    21    1
    17    21    22   ar
    18    22    23   ar
    19    23    24   ar
    20    24    27    1
    21    27    28    1
    22    28    29    1
    23    29    30    1
    24    30    31    1
    25    31    32    1
    26    32    33    1
    27    33    34    1
    28    24    25   ar
    29    25    26   ar
    30     5     6    1
    31    10    11   ar
    32    15    16   ar
    33    16    17   ar
    34    17    12   ar
    35    11     7   ar
    36     6     3    1
    37    26    21   ar
    38    34    28    1
@<TRIPOS>MOLECULE
*****
 34 38 0 0 0
SMALL
GASTEIGER

@<TRIPOS>ATOM
      1 C         137.9481  139.8352  159.8374 C.2     1  UNL1        0.3047
      2 O         136.4564  139.6917  159.7732 O.2     1  UNL1       -0.2647
      3 N         138.7262  139.1113  160.8960 N.am    1  UNL1       -0.2647
      4 C         138.3762  138.1869  162.0242 C.3     1  UNL1        0.1391
      5 C         139.8267  138.0877  162.3930 C.3     1  UNL1        0.2052
      6 C         140.1768  139.0121  161.2648 C.3     1  UNL1        0.1391
      7 C         139.2788  142.5949  157.4545 C.ar    1  UNL1        0.2501
      8 N         140.2406  141.4791  157.1715 N.ar    1  UNL1       -0.1068
      9 N         139.8591  140.3095  158.0297 N.ar    1  UNL1       -0.1021
     10 C         138.6616  140.7024  158.8431 C.ar    1  UNL1        0.3043
     11 O         138.3030  142.1148  158.4876 O.2     1  UNL1       -0.4122
     12 C         139.3148  146.6672  155.5402 C.ar    1  UNL1        0.1387
     13 C         140.2843  146.3463  156.6388 C.ar    1  UNL1        0.0371
     14 C         140.2723  144.9888  157.2770 C.ar    1  UNL1        0.0078
     15 C         139.2908  143.9523  156.8164 C.ar    1  UNL1        0.0553
     16 C         138.3213  144.2732  155.7178 C.ar    1  UNL1        0.0078
     17 C         138.3333  145.6307  155.0797 C.ar    1  UNL1        0.0371
     18 C         138.7891  149.2092  155.6489 C.3     1  UNL1        0.2525
     19 O         139.3268  148.0247  154.9021 O.3     1  UNL1       -0.4714
     20 O         140.6049  137.3639  163.4515 O.3     1  UNL1       -0.4756
     21 C         141.1796  138.1228  164.6107 C.ar    1  UNL1        0.1385
     22 C         142.6591  138.1076  164.8576 C.ar    1  UNL1        0.0366
     23 C         143.2339  138.8665  166.0168 C.ar    1  UNL1        0.0002
     24 C         142.3291  139.6406  166.9292 C.ar    1  UNL1       -0.0059
     25 C         140.8496  139.6557  166.6823 C.ar    1  UNL1        0.0002
     26 C         140.2750  138.8968  165.5230 C.ar    1  UNL1        0.0366
     27 C         142.9039  140.3994  168.0883 C.3     1  UNL1        0.0992
     28 N         141.9958  141.1436  169.0220 N.3     1  UNL1       -0.2667
     29 C         141.3898  142.4021  168.4750 C.3     1  UNL1        0.0750
     30 C         140.4521  143.3587  169.1501 C.3     1  UNL1        0.0494
     31 C         139.8889  143.2931  170.5387 C.3     1  UNL1        0.1437
     32 O         140.1241  142.2548  171.5953 O.3     1  UNL1       -0.3522
     33 C         140.9808  141.0255  171.5242 C.3     1  UNL1        0.1594
     34 C         141.8137  140.5311  170.3789 C.3     1  UNL1        0.1048
@<TRIPOS>BOND
     1    18    19    1
     2    19    12    1
     3    12    13   ar
     4    13    14   ar
     5    14    15   ar
     6    15     7    1
     7     7     8   ar
     8     8     9   ar
     9     9    10   ar
    10    10     1    1
    11     1     2    2
    12     1     3   am
    13     3     4    1
    14     4     5    1
    15     5    20    1
    16    20    21    1
    17    21    22   ar
    18    22    23   ar
    19    23    24   ar
    20    24    27    1
    21    27    28    1
    22    28    29    1
    23    29    30    1
    24    30    31    1
    25    31    32    1
    26    32    33    1
    27    33    34    1
    28    24    25   ar
    29    25    26   ar
    30     5     6    1
    31    10    11   ar
    32    15    16   ar
    33    16    17   ar
    34    17    12   ar
    35    11     7   ar
    36     6     3    1
    37    26    21   ar
    38    34    28    1
@<TRIPOS>MOLECULE
*****
 34 38 0 0 0
SMALL
GASTEIGER

@<TRIPOS>ATOM
      1 C         142.4456  139.7523  157.6769 C.2     1  UNL1        0.3047
      2 O         142.6266  141.0530  156.9523 O.2     1  UNL1       -0.2647
      3 N         141.7366  139.7224  158.9986 N.am    1  UNL1       -0.2647
      4 C         141.0937  140.7510  159.8808 C.3     1  UNL1        0.1391
      5 C         140.7341  139.6800  160.8674 C.3     1  UNL1        0.2052
      6 C         141.3770  138.6513  159.9852 C.3     1  UNL1        0.1391
      7 C         143.2464  136.1382  156.5098 C.ar    1  UNL1        0.2501
      8 N         144.3254  136.9134  155.8134 N.ar    1  UNL1       -0.1068
      9 N         144.1567  138.3616  156.1659 N.ar    1  UNL1       -0.1021
     10 C         142.9735  138.4815  157.0801 C.ar    1  UNL1        0.3043
     11 O         142.4110  137.1073  157.2926 O.2     1  UNL1       -0.4122
     12 C         142.6251  131.6867  156.2891 C.ar    1  UNL1        0.1387
     13 C         143.7083  132.2506  157.1602 C.ar    1  UNL1        0.0371
     14 C         143.9155  133.7344  157.2337 C.ar    1  UNL1        0.0078
     15 C         143.0393  134.6544  156.4362 C.ar    1  UNL1        0.0553
     16 C         141.9562  134.0906  155.5652 C.ar    1  UNL1        0.0078
     17 C         141.7491  132.6068  155.4916 C.ar    1  UNL1        0.0371
     18 C         143.5741  129.2726  156.4342 C.3     1  UNL1        0.2525
     19 O         142.4180  130.2029  156.2155 O.3     1  UNL1       -0.4714
     20 O         140.0251  139.6501  162.1890 O.3     1  UNL1       -0.4756
     21 C         140.6387  140.3166  163.3846 C.ar    1  UNL1        0.1385
     22 C         142.0446  139.9851  163.7889 C.ar    1  UNL1        0.0366
     23 C         142.6581  140.6516  164.9844 C.ar    1  UNL1        0.0002
     24 C         141.8657  141.6497  165.7756 C.ar    1  UNL1       -0.0059
     25 C         140.4598  141.9812  165.3713 C.ar    1  UNL1        0.0002
     26 C         139.8463  141.3147  164.1757 C.ar    1  UNL1        0.0366
     27 C         142.4793  142.3162  166.9711 C.3     1  UNL1        0.0992
     28 N         141.9507  142.0268  168.3448 N.3     1  UNL1       -0.2667
     29 C         142.5996  140.8812  169.0637 C.3     1  UNL1        0.0750
     30 C         142.3013  140.3470  170.4333 C.3     1  UNL1        0.0494
     31 C         141.2805  140.8265  171.4221 C.3     1  UNL1        0.1437
     32 O         140.3058  141.9585  171.2858 O.3     1  UNL1       -0.3522
     33 C         140.1113  142.8907  170.1268 C.3     1  UNL1        0.1594
     34 C         140.8434  142.9210  168.8179 C.3     1  UNL1        0.1048
@<TRIPOS>BOND
     1    18    19    1
     2    19    12    1
     3    12    13   ar
     4    13    14   ar
     5    14    15   ar
     6    15     7    1
     7     7     8   ar
     8     8     9   ar
     9     9    10   ar
    10    10     1    1
    11     1     2    2
    12     1     3   am
    13     3     4    1
    14     4     5    1
    15     5    20    1
    16    20    21    1
    17    21    22   ar
    18    22    23   ar
    19    23    24   ar
    20    24    27    1
    21    27    28    1
    22    28    29    1
    23    29    30    1
    24    30    31    1
    25    31    32    1
    26    32    33    1
    27    33    34    1
    28    24    25   ar
    29    25    26   ar
    30     5     6    1
    31    10    11   ar
    32    15    16   ar
    33    16    17   ar
    34    17    12   ar
    35    11     7   ar
    36     6     3    1
    37    26    21   ar
    38    34    28    1
