@<TRIPOS>MOLECULE
*****
 33 36 0 0 0
SMALL
GASTEIGER

@<TRIPOS>ATOM
      1 N         144.5394  142.0280  163.5760 N.3     1  UNL1       -0.2673
      2 C         144.0465  142.0774  162.1601 C.3     1  UNL1        0.1035
      3 C         142.9838  143.0613  161.7698 C.3     1  UNL1        0.1470
      4 C         141.9210  144.0454  161.3795 C.3     1  UNL1        0.1035
      5 N         141.3512  144.9800  162.4050 N.3     1  UNL1       -0.2682
      6 C         141.8441  144.9307  163.8209 C.3     1  UNL1        0.1035
      7 C         142.9069  143.9467  164.2112 C.3     1  UNL1        0.1470
      8 C         143.9696  142.9627  164.6015 C.3     1  UNL1        0.1035
      9 O         142.4140  143.9960  162.7953 O.3     1  UNL1       -0.3530
     10 C         145.6022  141.0440  163.9663 C.3     1  UNL1        0.0916
     11 C         145.2318  139.6242  164.2777 C.3     1  UNL1        0.1131
     12 C         143.4261  138.5050  162.7820 C.3     1  UNL1        0.1149
     13 N         143.8215  139.1552  164.0746 N.3     1  UNL1       -0.1526
     14 S         142.8067  139.3364  165.1643 S.O2    1  UNL1        0.0634
     15 O         141.9208  140.0868  164.2145 O.2     1  UNL1       -0.1528
     16 O         143.6925  138.5859  166.1141 O.2     1  UNL1       -0.1528
     17 C         141.7918  139.5176  166.2539 C.ar    1  UNL1        0.1222
     18 C         142.2404  139.7062  167.6728 C.ar    1  UNL1        0.0206
     19 C         141.2256  139.8874  168.7624 C.ar    1  UNL1        0.0116
     20 C         139.7622  139.8800  168.4332 C.ar    1  UNL1        0.0685
     21 C         139.3136  139.6913  167.0143 C.ar    1  UNL1        0.0116
     22 C         140.3284  139.5101  165.9246 C.ar    1  UNL1        0.0206
     23 C         138.7474  140.0611  169.5228 C.1     1  UNL1        0.1004
     24 N         137.7326  140.2423  170.6125 N.1     1  UNL1       -0.1908
     25 C         140.2885  145.9640  162.0147 C.3     1  UNL1        0.0770
     26 C         138.8478  145.6684  162.3097 C.3     1  UNL1        0.0459
     27 C         138.4420  144.2997  162.7700 C.ar    1  UNL1        0.0067
     28 C         138.1831  143.2166  161.7651 C.ar    1  UNL1       -0.0020
     29 C         137.7773  141.8478  162.2253 C.ar    1  UNL1       -0.0002
     30 C         137.6305  141.5621  163.6905 C.ar    1  UNL1        0.0023
     31 C         137.8894  142.6453  164.6955 C.ar    1  UNL1        0.0293
     32 C         138.2952  144.0140  164.2352 C.ar    1  UNL1        0.1362
     33 F         138.5541  145.0970  165.2401 F       1  UNL1       -0.2045
@<TRIPOS>BOND
     1    12    13    1
     2    13    11    1
     3    11    10    1
     4    10     1    1
     5     1     2    1
     6     2     3    1
     7     3     4    1
     8     4     5    1
     9     5    25    1
    10    25    26    1
    11    26    27    1
    12    27    28   ar
    13    28    29   ar
    14    29    30   ar
    15    30    31   ar
    16    31    32   ar
    17    32    33    1
    18     5     6    1
    19     6     7    1
    20     7     8    1
    21     7     9    1
    22    13    14    1
    23    14    15    2
    24    14    16    2
    25    14    17    1
    26    17    18   ar
    27    18    19   ar
    28    19    20   ar
    29    20    23    1
    30    23    24    3
    31    20    21   ar
    32    21    22   ar
    33     8     1    1
    34    22    17   ar
    35     9     3    1
    36    32    27   ar
@<TRIPOS>MOLECULE
*****
 33 36 0 0 0
SMALL
GASTEIGER

@<TRIPOS>ATOM
      1 N         143.0059  140.1604  160.7503 N.3     1  UNL1       -0.2673
      2 C         141.6074  140.3090  160.2289 C.3     1  UNL1        0.1035
      3 C         140.9624  141.6626  160.1872 C.3     1  UNL1        0.1470
      4 C         140.3174  143.0162  160.1454 C.3     1  UNL1        0.1035
      5 N         141.0710  144.2212  160.6250 N.3     1  UNL1       -0.2682
      6 C         142.4696  144.0726  161.1464 C.3     1  UNL1        0.1035
      7 C         143.1146  142.7190  161.1882 C.3     1  UNL1        0.1470
      8 C         143.7595  141.3654  161.2299 C.3     1  UNL1        0.1035
      9 O         141.7160  142.8676  160.6668 O.3     1  UNL1       -0.3530
     10 C         143.6510  138.8068  160.7921 C.3     1  UNL1        0.0916
     11 C         143.6931  138.0354  162.0778 C.3     1  UNL1        0.1131
     12 C         141.2866  137.3424  162.7697 C.3     1  UNL1        0.1149
     13 N         142.5437  138.1153  163.0384 N.3     1  UNL1       -0.1526
     14 S         142.6516  138.9681  164.2677 S.O2    1  UNL1        0.0634
     15 O         141.1712  138.8505  164.4791 O.2     1  UNL1       -0.1528
     16 O         144.1319  139.0857  164.0562 O.2     1  UNL1       -0.1528
     17 C         142.7594  139.8209  165.4969 C.ar    1  UNL1        0.1222
     18 C         142.5744  139.2082  166.8535 C.ar    1  UNL1        0.0206
     19 C         142.6823  140.0610  168.0827 C.ar    1  UNL1        0.0116
     20 C         142.9751  141.5266  167.9554 C.ar    1  UNL1        0.0685
     21 C         143.1601  142.1394  166.5988 C.ar    1  UNL1        0.0116
     22 C         143.0522  141.2866  165.3696 C.ar    1  UNL1        0.0206
     23 C         143.0830  142.3794  169.1847 C.1     1  UNL1        0.1004
     24 N         143.1908  143.2322  170.4139 N.1     1  UNL1       -0.1908
     25 C         140.4260  145.5748  160.5833 C.3     1  UNL1        0.0770
     26 C         139.6830  146.0888  161.7807 C.3     1  UNL1        0.0459
     27 C         139.3616  145.1646  162.9176 C.ar    1  UNL1        0.0067
     28 C         138.0269  144.4827  162.9754 C.ar    1  UNL1       -0.0020
     29 C         137.7055  143.5584  164.1124 C.ar    1  UNL1       -0.0002
     30 C         138.7189  143.3162  165.1914 C.ar    1  UNL1        0.0023
     31 C         140.0537  143.9982  165.1335 C.ar    1  UNL1        0.0293
     32 C         140.3750  144.9224  163.9966 C.ar    1  UNL1        0.1362
     33 F         141.7098  145.6044  163.9388 F       1  UNL1       -0.2045
@<TRIPOS>BOND
     1    12    13    1
     2    13    11    1
     3    11    10    1
     4    10     1    1
     5     1     2    1
     6     2     3    1
     7     3     4    1
     8     4     5    1
     9     5    25    1
    10    25    26    1
    11    26    27    1
    12    27    28   ar
    13    28    29   ar
    14    29    30   ar
    15    30    31   ar
    16    31    32   ar
    17    32    33    1
    18     5     6    1
    19     6     7    1
    20     7     8    1
    21     7     9    1
    22    13    14    1
    23    14    15    2
    24    14    16    2
    25    14    17    1
    26    17    18   ar
    27    18    19   ar
    28    19    20   ar
    29    20    23    1
    30    23    24    3
    31    20    21   ar
    32    21    22   ar
    33     8     1    1
    34    22    17   ar
    35     9     3    1
    36    32    27   ar
@<TRIPOS>MOLECULE
*****
 33 36 0 0 0
SMALL
GASTEIGER

@<TRIPOS>ATOM
      1 N         142.2057  139.4698  159.4308 N.3     1  UNL1       -0.2673
      2 C         142.7452  140.8537  159.2219 C.3     1  UNL1        0.1035
      3 C         143.6049  141.4902  160.2734 C.3     1  UNL1        0.1470
      4 C         144.4646  142.1267  161.3250 C.3     1  UNL1        0.1035
      5 N         144.7848  141.3794  162.5855 N.3     1  UNL1       -0.2682
      6 C         144.2452  139.9954  162.7945 C.3     1  UNL1        0.1035
      7 C         143.3855  139.3589  161.7429 C.3     1  UNL1        0.1470
      8 C         142.5259  138.7224  160.6914 C.3     1  UNL1        0.1035
      9 O         143.9250  140.7428  161.5339 O.3     1  UNL1       -0.3530
     10 C         141.3460  138.8332  158.3793 C.3     1  UNL1        0.0916
     11 C         139.9386  138.4290  158.7047 C.3     1  UNL1        0.1131
     12 C         138.2605  140.4092  158.5922 C.3     1  UNL1        0.1149
     13 N         139.0212  139.3951  159.3939 N.3     1  UNL1       -0.1526
     14 S         138.8645  139.3470  160.8850 S.O2    1  UNL1        0.0634
     15 O         139.0779  137.8625  160.8595 O.2     1  UNL1       -0.1528
     16 O         138.6511  140.8315  160.9104 O.2     1  UNL1       -0.1528
     17 C         138.7078  139.2989  162.3760 C.ar    1  UNL1        0.1222
     18 C         138.9870  138.0260  163.1188 C.ar    1  UNL1        0.0206
     19 C         138.8303  137.9779  164.6098 C.ar    1  UNL1        0.0116
     20 C         138.3944  139.2027  165.3580 C.ar    1  UNL1        0.0685
     21 C         138.1151  140.4756  164.6152 C.ar    1  UNL1        0.0116
     22 C         138.2718  140.5238  163.1242 C.ar    1  UNL1        0.0206
     23 C         138.2377  139.1546  166.8490 C.1     1  UNL1        0.1004
     24 N         138.0810  139.1065  168.3400 N.1     1  UNL1       -0.1908
     25 C         145.6444  142.0159  163.6370 C.3     1  UNL1        0.0770
     26 C         145.0102  142.7507  164.7807 C.3     1  UNL1        0.0459
     27 C         143.5551  143.1109  164.7260 C.ar    1  UNL1        0.0067
     28 C         142.5366  142.2173  165.3695 C.ar    1  UNL1       -0.0020
     29 C         141.0815  142.5775  165.3148 C.ar    1  UNL1       -0.0002
     30 C         140.6449  143.8313  164.6166 C.ar    1  UNL1        0.0023
     31 C         141.6635  144.7249  163.9731 C.ar    1  UNL1        0.0293
     32 C         143.1186  144.3646  164.0278 C.ar    1  UNL1        0.1362
     33 F         144.1371  145.2582  163.3843 F       1  UNL1       -0.2045
@<TRIPOS>BOND
     1    12    13    1
     2    13    11    1
     3    11    10    1
     4    10     1    1
     5     1     2    1
     6     2     3    1
     7     3     4    1
     8     4     5    1
     9     5    25    1
    10    25    26    1
    11    26    27    1
    12    27    28   ar
    13    28    29   ar
    14    29    30   ar
    15    30    31   ar
    16    31    32   ar
    17    32    33    1
    18     5     6    1
    19     6     7    1
    20     7     8    1
    21     7     9    1
    22    13    14    1
    23    14    15    2
    24    14    16    2
    25    14    17    1
    26    17    18   ar
    27    18    19   ar
    28    19    20   ar
    29    20    23    1
    30    23    24    3
    31    20    21   ar
    32    21    22   ar
    33     8     1    1
    34    22    17   ar
    35     9     3    1
    36    32    27   ar
@<TRIPOS>MOLECULE
*****
 33 36 0 0 0
SMALL
GASTEIGER

@<TRIPOS>ATOM
      1 N         141.9711  139.3004  159.7188 N.3     1  UNL1       -0.2673
      2 C         142.6364  140.6078  159.4057 C.3     1  UNL1        0.1035
      3 C         143.5640  141.2352  160.4036 C.3     1  UNL1        0.1470
      4 C         144.4916  141.8627  161.4016 C.3     1  UNL1        0.1035
      5 N         144.7540  141.1827  162.7126 N.3     1  UNL1       -0.2682
      6 C         144.0886  139.8752  163.0257 C.3     1  UNL1        0.1035
      7 C         143.1610  139.2478  162.0278 C.3     1  UNL1        0.1470
      8 C         142.2334  138.6204  161.0298 C.3     1  UNL1        0.1035
      9 O         143.8263  140.5552  161.7146 O.3     1  UNL1       -0.3530
     10 C         141.0435  138.6730  158.7209 C.3     1  UNL1        0.0916
     11 C         139.6175  138.3948  159.0939 C.3     1  UNL1        0.1131
     12 C         138.0674  140.4789  159.0302 C.3     1  UNL1        0.1149
     13 N         138.8128  139.4377  159.8115 N.3     1  UNL1       -0.1526
     14 S         138.7535  139.4395  161.3103 S.O2    1  UNL1        0.0634
     15 O         138.8199  140.9380  161.3112 O.2     1  UNL1       -0.1528
     16 O         138.6872  137.9410  161.3094 O.2     1  UNL1       -0.1528
     17 C         138.6943  139.4413  162.8091 C.ar    1  UNL1        0.1222
     18 C         138.9238  138.1693  163.5703 C.ar    1  UNL1        0.0206
     19 C         138.8645  138.1711  165.0691 C.ar    1  UNL1        0.0116
     20 C         138.5757  139.4448  165.8068 C.ar    1  UNL1        0.0685
     21 C         138.3462  140.7168  165.0456 C.ar    1  UNL1        0.0116
     22 C         138.4055  140.7151  163.5468 C.ar    1  UNL1        0.0206
     23 C         138.5165  139.4465  167.3056 C.1     1  UNL1        0.1004
     24 N         138.4572  139.4483  168.8045 N.1     1  UNL1       -0.1908
     25 C         145.6816  141.8101  163.7105 C.3     1  UNL1        0.0770
     26 C         145.1506  142.7875  164.7169 C.3     1  UNL1        0.0459
     27 C         143.7594  143.3299  164.5741 C.ar    1  UNL1        0.0067
     28 C         143.5264  144.6096  163.8271 C.ar    1  UNL1       -0.0020
     29 C         142.1352  145.1520  163.6842 C.ar    1  UNL1       -0.0002
     30 C         140.9770  144.4147  164.2884 C.ar    1  UNL1        0.0023
     31 C         141.2101  143.1349  165.0354 C.ar    1  UNL1        0.0293
     32 C         142.6013  142.5925  165.1782 C.ar    1  UNL1        0.1362
     33 F         142.8343  141.3129  165.9252 F       1  UNL1       -0.2045
@<TRIPOS>BOND
     1    12    13    1
     2    13    11    1
     3    11    10    1
     4    10     1    1
     5     1     2    1
     6     2     3    1
     7     3     4    1
     8     4     5    1
     9     5    25    1
    10    25    26    1
    11    26    27    1
    12    27    28   ar
    13    28    29   ar
    14    29    30   ar
    15    30    31   ar
    16    31    32   ar
    17    32    33    1
    18     5     6    1
    19     6     7    1
    20     7     8    1
    21     7     9    1
    22    13    14    1
    23    14    15    2
    24    14    16    2
    25    14    17    1
    26    17    18   ar
    27    18    19   ar
    28    19    20   ar
    29    20    23    1
    30    23    24    3
    31    20    21   ar
    32    21    22   ar
    33     8     1    1
    34    22    17   ar
    35     9     3    1
    36    32    27   ar
@<TRIPOS>MOLECULE
*****
 33 36 0 0 0
SMALL
GASTEIGER

@<TRIPOS>ATOM
      1 N         140.0163  142.3712  159.4115 N.3     1  UNL1       -0.2673
      2 C         139.4780  143.2064  160.5352 C.3     1  UNL1        0.1035
      3 C         140.4161  143.8042  161.5414 C.3     1  UNL1        0.1470
      4 C         141.3542  144.4020  162.5478 C.3     1  UNL1        0.1035
      5 N         142.8306  144.1645  162.4304 N.3     1  UNL1       -0.2682
      6 C         143.3689  143.3293  161.3067 C.3     1  UNL1        0.1035
      7 C         142.4308  142.7315  160.3004 C.3     1  UNL1        0.1470
      8 C         141.4927  142.1338  159.2942 C.3     1  UNL1        0.1035
      9 O         141.8925  143.5667  161.4241 O.3     1  UNL1       -0.3530
     10 C         139.0782  141.7734  158.4052 C.3     1  UNL1        0.0916
     11 C         138.3382  140.5093  158.7280 C.3     1  UNL1        0.1131
     12 C         139.8091  138.3691  158.8071 C.3     1  UNL1        0.1149
     13 N         139.0132  139.4252  159.5150 N.3     1  UNL1       -0.1526
     14 S         138.8922  139.3973  161.0098 S.O2    1  UNL1        0.0634
     15 O         137.4109  139.6025  160.8938 O.2     1  UNL1       -0.1528
     16 O         140.3736  139.1921  161.1259 O.2     1  UNL1       -0.1528
     17 C         138.7712  139.3694  162.5047 C.ar    1  UNL1        0.1222
     18 C         139.0782  138.1095  163.2586 C.ar    1  UNL1        0.0206
     19 C         138.9572  138.0816  164.7534 C.ar    1  UNL1        0.0116
     20 C         138.5293  139.3135  165.4944 C.ar    1  UNL1        0.0685
     21 C         138.2223  140.5735  164.7405 C.ar    1  UNL1        0.0116
     22 C         138.3432  140.6014  163.2456 C.ar    1  UNL1        0.0206
     23 C         138.4083  139.2856  166.9892 C.1     1  UNL1        0.1004
     24 N         138.2873  139.2577  168.4841 N.1     1  UNL1       -0.1908
     25 C         143.7687  144.7623  163.4367 C.3     1  UNL1        0.0770
     26 C         144.1327  143.9933  164.6722 C.3     1  UNL1        0.0459
     27 C         143.7573  142.5461  164.7926 C.ar    1  UNL1        0.0067
     28 C         142.4363  142.1611  165.3897 C.ar    1  UNL1       -0.0020
     29 C         142.0609  140.7138  165.5101 C.ar    1  UNL1       -0.0002
     30 C         143.0066  139.6515  165.0335 C.ar    1  UNL1        0.0023
     31 C         144.3277  140.0366  164.4364 C.ar    1  UNL1        0.0293
     32 C         144.7031  141.4838  164.3160 C.ar    1  UNL1        0.1362
     33 F         146.0241  141.8688  163.7189 F       1  UNL1       -0.2045
@<TRIPOS>BOND
     1    12    13    1
     2    13    11    1
     3    11    10    1
     4    10     1    1
     5     1     2    1
     6     2     3    1
     7     3     4    1
     8     4     5    1
     9     5    25    1
    10    25    26    1
    11    26    27    1
    12    27    28   ar
    13    28    29   ar
    14    29    30   ar
    15    30    31   ar
    16    31    32   ar
    17    32    33    1
    18     5     6    1
    19     6     7    1
    20     7     8    1
    21     7     9    1
    22    13    14    1
    23    14    15    2
    24    14    16    2
    25    14    17    1
    26    17    18   ar
    27    18    19   ar
    28    19    20   ar
    29    20    23    1
    30    23    24    3
    31    20    21   ar
    32    21    22   ar
    33     8     1    1
    34    22    17   ar
    35     9     3    1
    36    32    27   ar
@<TRIPOS>MOLECULE
*****
 33 36 0 0 0
SMALL
GASTEIGER

@<TRIPOS>ATOM
      1 N         139.7260  139.8820  159.7897 N.3     1  UNL1       -0.2673
      2 C         140.0339  141.3206  159.4973 C.3     1  UNL1        0.1035
      3 C         139.5357  142.3960  160.4167 C.3     1  UNL1        0.1470
      4 C         139.0375  143.4715  161.3361 C.3     1  UNL1        0.1035
      5 N         138.2314  143.1082  162.5478 N.3     1  UNL1       -0.2682
      6 C         137.9235  141.6695  162.8401 C.3     1  UNL1        0.1035
      7 C         138.4217  140.5941  161.9207 C.3     1  UNL1        0.1470
      8 C         138.9199  139.5188  161.0014 C.3     1  UNL1        0.1035
      9 O         138.7296  142.0328  161.6284 O.3     1  UNL1       -0.3530
     10 C         140.2243  138.8065  158.8703 C.3     1  UNL1        0.0916
     11 C         141.5904  138.2210  159.0719 C.3     1  UNL1        0.1131
     12 C         143.6345  139.8231  159.0010 C.3     1  UNL1        0.1149
     13 N         142.6472  139.0109  159.7856 N.3     1  UNL1       -0.1526
     14 S         142.7166  138.9887  161.2838 S.O2    1  UNL1        0.0634
     15 O         143.0890  140.4418  161.2881 O.2     1  UNL1       -0.1528
     16 O         142.3442  137.5357  161.2795 O.2     1  UNL1       -0.1528
     17 C         142.7860  138.9665  162.7820 C.ar    1  UNL1        0.1222
     18 C         144.0565  139.3523  163.4798 C.ar    1  UNL1        0.0206
     19 C         144.1259  139.3301  164.9780 C.ar    1  UNL1        0.0116
     20 C         142.9248  138.9221  165.7785 C.ar    1  UNL1        0.0685
     21 C         141.6542  138.5363  165.0807 C.ar    1  UNL1        0.0116
     22 C         141.5848  138.5585  163.5825 C.ar    1  UNL1        0.0206
     23 C         142.9942  138.8999  167.2767 C.1     1  UNL1        0.1004
     24 N         143.0636  138.8777  168.7749 N.1     1  UNL1       -0.1908
     25 C         137.7332  144.1836  163.4672 C.3     1  UNL1        0.0770
     26 C         138.5612  144.6073  164.6440 C.3     1  UNL1        0.0459
     27 C         139.8874  143.9555  164.9015 C.ar    1  UNL1        0.0067
     28 C         139.9876  142.8178  165.8738 C.ar    1  UNL1       -0.0020
     29 C         141.3139  142.1659  166.1314 C.ar    1  UNL1       -0.0002
     30 C         142.5398  142.6518  165.4166 C.ar    1  UNL1        0.0023
     31 C         142.4395  143.7896  164.4442 C.ar    1  UNL1        0.0293
     32 C         141.1133  144.4414  164.1867 C.ar    1  UNL1        0.1362
     33 F         141.0131  145.5792  163.2144 F       1  UNL1       -0.2045
@<TRIPOS>BOND
     1    12    13    1
     2    13    11    1
     3    11    10    1
     4    10     1    1
     5     1     2    1
     6     2     3    1
     7     3     4    1
     8     4     5    1
     9     5    25    1
    10    25    26    1
    11    26    27    1
    12    27    28   ar
    13    28    29   ar
    14    29    30   ar
    15    30    31   ar
    16    31    32   ar
    17    32    33    1
    18     5     6    1
    19     6     7    1
    20     7     8    1
    21     7     9    1
    22    13    14    1
    23    14    15    2
    24    14    16    2
    25    14    17    1
    26    17    18   ar
    27    18    19   ar
    28    19    20   ar
    29    20    23    1
    30    23    24    3
    31    20    21   ar
    32    21    22   ar
    33     8     1    1
    34    22    17   ar
    35     9     3    1
    36    32    27   ar
@<TRIPOS>MOLECULE
*****
 33 36 0 0 0
SMALL
GASTEIGER

@<TRIPOS>ATOM
      1 N         142.3787  141.9411  159.1028 N.3     1  UNL1       -0.2673
      2 C         143.2545  142.6880  160.0646 C.3     1  UNL1        0.1035
      3 C         142.6399  143.4611  161.1935 C.3     1  UNL1        0.1470
      4 C         142.0253  144.2342  162.3225 C.3     1  UNL1        0.1035
      5 N         140.5349  144.2604  162.4897 N.3     1  UNL1       -0.2682
      6 C         139.6591  143.5135  161.5278 C.3     1  UNL1        0.1035
      7 C         140.2737  142.7404  160.3989 C.3     1  UNL1        0.1470
      8 C         140.8883  141.9673  159.2700 C.3     1  UNL1        0.1035
      9 O         141.1495  143.4873  161.3607 O.3     1  UNL1       -0.3530
     10 C         142.9933  141.1679  157.9738 C.3     1  UNL1        0.0916
     11 C         143.7783  139.9218  158.2580 C.3     1  UNL1        0.1131
     12 C         142.5167  137.6505  158.2588 C.3     1  UNL1        0.1149
     13 N         143.1421  138.7894  159.0084 N.3     1  UNL1       -0.1526
     14 S         143.1313  138.7959  160.5083 S.O2    1  UNL1        0.0634
     15 O         144.5983  139.1087  160.5175 O.2     1  UNL1       -0.1528
     16 O         141.6643  138.4830  160.4991 O.2     1  UNL1       -0.1528
     17 C         143.1205  138.8024  162.0083 C.ar    1  UNL1        0.1222
     18 C         142.0565  138.0528  162.7539 C.ar    1  UNL1        0.0206
     19 C         142.0457  138.0593  164.2538 C.ar    1  UNL1        0.0116
     20 C         143.0989  138.8154  165.0082 C.ar    1  UNL1        0.0685
     21 C         144.1630  139.5650  164.2625 C.ar    1  UNL1        0.0116
     22 C         144.1738  139.5585  162.7626 C.ar    1  UNL1        0.0206
     23 C         143.0881  138.8219  166.5081 C.1     1  UNL1        0.1004
     24 N         143.0774  138.8284  168.0081 N.1     1  UNL1       -0.1908
     25 C         139.9203  145.0335  163.6186 C.3     1  UNL1        0.0770
     26 C         138.8709  144.3961  164.4803 C.3     1  UNL1        0.0459
     27 C         139.1071  143.0364  165.0678 C.ar    1  UNL1        0.0067
     28 C         140.1696  142.8434  166.1088 C.ar    1  UNL1       -0.0020
     29 C         140.4059  141.4836  166.6964 C.ar    1  UNL1       -0.0002
     30 C         139.5796  140.3168  166.2428 C.ar    1  UNL1        0.0023
     31 C         138.5170  140.5097  165.2017 C.ar    1  UNL1        0.0293
     32 C         138.2808  141.8695  164.6142 C.ar    1  UNL1        0.1362
     33 F         137.2183  142.0624  163.5732 F       1  UNL1       -0.2045
@<TRIPOS>BOND
     1    12    13    1
     2    13    11    1
     3    11    10    1
     4    10     1    1
     5     1     2    1
     6     2     3    1
     7     3     4    1
     8     4     5    1
     9     5    25    1
    10    25    26    1
    11    26    27    1
    12    27    28   ar
    13    28    29   ar
    14    29    30   ar
    15    30    31   ar
    16    31    32   ar
    17    32    33    1
    18     5     6    1
    19     6     7    1
    20     7     8    1
    21     7     9    1
    22    13    14    1
    23    14    15    2
    24    14    16    2
    25    14    17    1
    26    17    18   ar
    27    18    19   ar
    28    19    20   ar
    29    20    23    1
    30    23    24    3
    31    20    21   ar
    32    21    22   ar
    33     8     1    1
    34    22    17   ar
    35     9     3    1
    36    32    27   ar
@<TRIPOS>MOLECULE
*****
 33 36 0 0 0
SMALL
GASTEIGER

@<TRIPOS>ATOM
      1 N         141.2438  138.3145  159.6138 N.3     1  UNL1       -0.2673
      2 C         142.1579  138.0024  160.7614 C.3     1  UNL1        0.1035
      3 C         141.5945  137.8107  162.1383 C.3     1  UNL1        0.1470
      4 C         141.0312  137.6191  163.5153 C.3     1  UNL1        0.1035
      5 N         139.5537  137.7396  163.7446 N.3     1  UNL1       -0.2682
      6 C         138.6396  138.0517  162.5969 C.3     1  UNL1        0.1035
      7 C         139.2030  138.2433  161.2201 C.3     1  UNL1        0.1470
      8 C         139.7663  138.4350  159.8432 C.3     1  UNL1        0.1035
      9 O         140.1171  137.9312  162.3676 O.3     1  UNL1       -0.3530
     10 C         141.8071  138.5061  158.2369 C.3     1  UNL1        0.0916
     11 C         142.5824  137.4009  157.5832 C.3     1  UNL1        0.1131
     12 C         140.6667  136.9617  155.8840 C.3     1  UNL1        0.1149
     13 N         141.9139  136.5062  156.5818 N.3     1  UNL1       -0.1526
     14 S         142.4926  135.1561  156.2783 S.O2    1  UNL1        0.0634
     15 O         141.6816  135.0918  155.0181 O.2     1  UNL1       -0.1528
     16 O         143.3036  135.2204  157.5385 O.2     1  UNL1       -0.1528
     17 C         143.0714  133.8059  155.9748 C.ar    1  UNL1        0.1222
     18 C         144.1626  133.2463  156.8384 C.ar    1  UNL1        0.0206
     19 C         144.7414  131.8961  156.5348 C.ar    1  UNL1        0.0116
     20 C         144.2288  131.1056  155.3677 C.ar    1  UNL1        0.0685
     21 C         143.1375  131.6652  154.5040 C.ar    1  UNL1        0.0116
     22 C         142.5588  133.0154  154.8075 C.ar    1  UNL1        0.0206
     23 C         144.8076  129.7554  155.0642 C.1     1  UNL1        0.1004
     24 N         145.3863  128.4053  154.7606 N.1     1  UNL1       -0.1908
     25 C         138.9904  137.5480  165.1215 C.3     1  UNL1        0.0770
     26 C         138.2509  138.6677  165.7919 C.3     1  UNL1        0.0459
     27 C         139.0114  139.7786  166.4533 C.ar    1  UNL1        0.0067
     28 C         139.2093  139.7704  167.9402 C.ar    1  UNL1       -0.0020
     29 C         139.9698  140.8813  168.6017 C.ar    1  UNL1       -0.0002
     30 C         140.5324  142.0004  167.7764 C.ar    1  UNL1        0.0023
     31 C         140.3345  142.0085  166.2894 C.ar    1  UNL1        0.0293
     32 C         139.5740  140.8977  165.6280 C.ar    1  UNL1        0.1362
     33 F         139.3761  140.9058  164.1411 F       1  UNL1       -0.2045
@<TRIPOS>BOND
     1    12    13    1
     2    13    11    1
     3    11    10    1
     4    10     1    1
     5     1     2    1
     6     2     3    1
     7     3     4    1
     8     4     5    1
     9     5    25    1
    10    25    26    1
    11    26    27    1
    12    27    28   ar
    13    28    29   ar
    14    29    30   ar
    15    30    31   ar
    16    31    32   ar
    17    32    33    1
    18     5     6    1
    19     6     7    1
    20     7     8    1
    21     7     9    1
    22    13    14    1
    23    14    15    2
    24    14    16    2
    25    14    17    1
    26    17    18   ar
    27    18    19   ar
    28    19    20   ar
    29    20    23    1
    30    23    24    3
    31    20    21   ar
    32    21    22   ar
    33     8     1    1
    34    22    17   ar
    35     9     3    1
    36    32    27   ar
@<TRIPOS>MOLECULE
*****
 33 36 0 0 0
SMALL
GASTEIGER

@<TRIPOS>ATOM
      1 N         138.6691  141.9802  160.3266 N.3     1  UNL1       -0.2673
      2 C         139.4213  140.6864  160.4269 C.3     1  UNL1        0.1035
      3 C         139.6542  140.0564  161.7681 C.3     1  UNL1        0.1470
      4 C         139.8872  139.4263  163.1093 C.3     1  UNL1        0.1035
      5 N         139.3680  140.0902  164.3502 N.3     1  UNL1       -0.2682
      6 C         138.6157  141.3841  164.2498 C.3     1  UNL1        0.1035
      7 C         138.3828  142.0141  162.9086 C.3     1  UNL1        0.1470
      8 C         138.1499  142.6441  161.5674 C.3     1  UNL1        0.1035
      9 O         139.1350  140.7203  163.0089 O.3     1  UNL1       -0.3530
     10 C         138.4362  142.6103  158.9853 C.3     1  UNL1        0.0916
     11 C         139.5921  143.1631  158.2054 C.3     1  UNL1        0.1131
     12 C         140.2030  145.6723  157.9216 C.3     1  UNL1        0.1149
     13 N         140.3069  144.3891  158.6913 N.3     1  UNL1       -0.1526
     14 S         141.1254  144.3319  159.9470 S.O2    1  UNL1        0.0634
     15 O         141.8621  143.1396  159.4123 O.2     1  UNL1       -0.1528
     16 O         140.3887  145.5241  160.4816 O.2     1  UNL1       -0.1528
     17 C         141.9440  144.2746  161.2026 C.ar    1  UNL1        0.1222
     18 C         141.4632  144.9665  162.4436 C.ar    1  UNL1        0.0206
     19 C         142.2817  144.9092  163.6992 C.ar    1  UNL1        0.0116
     20 C         143.5811  144.1601  163.7139 C.ar    1  UNL1        0.0685
     21 C         144.0620  143.4681  162.4729 C.ar    1  UNL1        0.0116
     22 C         143.2435  143.5253  161.2173 C.ar    1  UNL1        0.0206
     23 C         144.3997  144.1028  164.9696 C.1     1  UNL1        0.1004
     24 N         145.2183  144.0455  166.2252 N.1     1  UNL1       -0.1908
     25 C         139.6009  139.4602  165.6914 C.3     1  UNL1        0.0770
     26 C         140.7161  139.9503  166.5667 C.3     1  UNL1        0.0459
     27 C         140.4088  140.7726  167.7830 C.ar    1  UNL1        0.0067
     28 C         139.5359  140.2119  168.8663 C.ar    1  UNL1       -0.0020
     29 C         139.2286  141.0342  170.0827 C.ar    1  UNL1       -0.0002
     30 C         139.7943  142.4170  170.2158 C.ar    1  UNL1        0.0023
     31 C         140.6673  142.9776  169.1324 C.ar    1  UNL1        0.0293
     32 C         140.9745  142.1554  167.9161 C.ar    1  UNL1        0.1362
     33 F         141.8475  142.7160  166.8328 F       1  UNL1       -0.2045
@<TRIPOS>BOND
     1    12    13    1
     2    13    11    1
     3    11    10    1
     4    10     1    1
     5     1     2    1
     6     2     3    1
     7     3     4    1
     8     4     5    1
     9     5    25    1
    10    25    26    1
    11    26    27    1
    12    27    28   ar
    13    28    29   ar
    14    29    30   ar
    15    30    31   ar
    16    31    32   ar
    17    32    33    1
    18     5     6    1
    19     6     7    1
    20     7     8    1
    21     7     9    1
    22    13    14    1
    23    14    15    2
    24    14    16    2
    25    14    17    1
    26    17    18   ar
    27    18    19   ar
    28    19    20   ar
    29    20    23    1
    30    23    24    3
    31    20    21   ar
    32    21    22   ar
    33     8     1    1
    34    22    17   ar
    35     9     3    1
    36    32    27   ar
