@<TRIPOS>MOLECULE
*****
 37 41 0 0 0
SMALL
GASTEIGER

@<TRIPOS>ATOM
      1 C         139.3314  141.1245  160.5912 C.ar    1  UNL1        0.1233
      2 C         139.3002  141.1057  162.0907 C.ar    1  UNL1        0.1181
      3 N         138.3600  142.1812  162.5483 N.ar    1  UNL1       -0.2208
      4 N         137.8102  142.8647  161.3316 N.ar    1  UNL1       -0.0633
      5 N         138.4105  142.2117  160.1220 N.ar    1  UNL1       -0.1287
      6 C         142.3393  138.9118  159.2470 C.ar    1  UNL1        0.1547
      7 C         141.5294  139.8206  160.1235 C.ar    1  UNL1        0.0400
      8 C         140.1413  140.2157  159.7148 C.ar    1  UNL1        0.0241
      9 C         139.5631  139.7021  158.4296 C.ar    1  UNL1        0.0033
     10 C         140.3729  138.7933  157.5531 C.ar    1  UNL1        0.0207
     11 C         141.7610  138.3982  157.9618 C.ar    1  UNL1        0.0994
     12 N         142.5710  137.4893  157.0853 N.ar    1  UNL1       -0.2839
     13 C         143.5500  137.9208  156.0338 C.ar    1  UNL1        0.1826
     14 N         144.1282  136.6878  155.4052 N.ar    1  UNL1       -0.2280
     15 C         143.5067  135.4944  156.0680 C.ar    1  UNL1        0.0786
     16 C         143.7965  134.0577  155.7487 C.3     1  UNL1        0.0538
     17 C         142.5443  135.9898  157.1064 C.ar    1  UNL1        0.0963
     18 C         144.0088  138.1283  161.0770 C.3     1  UNL1        0.2525
     19 O         143.7273  138.5167  159.6558 O.3     1  UNL1       -0.4700
     20 C         138.0280  142.5146  163.9727 C.3     1  UNL1        0.2141
     21 C         139.0465  142.2940  165.0515 C.2     1  UNL1        0.2545
     22 O         140.0078  143.3881  165.4106 O.2     1  UNL1       -0.2724
     23 N         139.1038  140.9792  165.7713 N.am    1  UNL1       -0.2488
     24 C         140.1224  140.7586  166.8502 C.ar    1  UNL1        0.0538
     25 C         141.5022  140.2902  166.4945 C.ar    1  UNL1        0.0146
     26 C         142.5208  140.0696  167.5734 C.ar    1  UNL1       -0.0033
     27 C         142.1594  140.3174  169.0079 C.ar    1  UNL1       -0.0260
     28 C         140.7795  140.7857  169.3637 C.ar    1  UNL1       -0.0249
     29 C         139.7610  141.0064  168.2849 C.ar    1  UNL1        0.0103
     30 C         140.7139  140.9454  170.8537 C.3     1  UNL1        0.0264
     31 C         142.0533  140.5757  171.4189 C.3     1  UNL1        0.0093
     32 C         142.9467  140.1875  170.2781 C.3     1  UNL1        0.0264
     33 C         138.1426  139.8851  165.4123 C.3     1  UNL1        0.2016
     34 C         138.5885  138.4534  165.4481 C.3     1  UNL1        0.4160
     35 F         139.0346  137.0217  165.4838 F       1  UNL1       -0.1682
     36 F         137.6575  138.1920  166.5947 F       1  UNL1       -0.1682
     37 F         139.5196  138.7147  164.3013 F       1  UNL1       -0.1682
@<TRIPOS>BOND
     1    18    19    1
     2    19     6    1
     3     6     7   ar
     4     7     8   ar
     5     8     1    1
     6     1     2   ar
     7     2     3   ar
     8     3    20    1
     9    20    21    1
    10    21    22    2
    11    21    23   am
    12    23    33    1
    13    33    34    1
    14    34    35    1
    15    34    36    1
    16    34    37    1
    17    23    24    1
    18    24    25   ar
    19    25    26   ar
    20    26    27   ar
    21    27    28   ar
    22    28    29   ar
    23    28    30    1
    24    30    31    1
    25    31    32    1
    26     3     4   ar
    27     4     5   ar
    28     8     9   ar
    29     9    10   ar
    30    10    11   ar
    31    11    12    1
    32    12    13   ar
    33    13    14   ar
    34    14    15   ar
    35    15    16    1
    36    15    17   ar
    37    11     6   ar
    38    17    12   ar
    39     5     1   ar
    40    29    24   ar
    41    32    27    1
@<TRIPOS>MOLECULE
*****
 37 41 0 0 0
SMALL
GASTEIGER

@<TRIPOS>ATOM
      1 C         142.9659  137.2387  157.2515 C.ar    1  UNL1        0.1233
      2 C         142.5867  137.7367  158.6146 C.ar    1  UNL1        0.1181
      3 N         143.1122  139.1341  158.7603 N.ar    1  UNL1       -0.2208
      4 N         143.8162  139.4997  157.4872 N.ar    1  UNL1       -0.0633
      5 N         143.7258  138.3283  156.5547 N.ar    1  UNL1       -0.1287
      6 C         142.9844  133.3128  156.6710 C.ar    1  UNL1        0.1547
      7 C         143.3082  134.6633  157.2378 C.ar    1  UNL1        0.0400
      8 C         142.6421  135.8882  156.6847 C.ar    1  UNL1        0.0241
      9 C         141.6521  135.7626  155.5649 C.ar    1  UNL1        0.0033
     10 C         141.3282  134.4121  154.9980 C.ar    1  UNL1        0.0207
     11 C         141.9944  133.1872  155.5511 C.ar    1  UNL1        0.0994
     12 N         141.6705  131.8366  154.9843 N.ar    1  UNL1       -0.2839
     13 C         140.3298  131.1648  155.0180 C.ar    1  UNL1        0.1826
     14 N         140.4611  129.8338  154.3389 N.ar    1  UNL1       -0.2280
     15 C         141.8830  129.6831  153.8856 C.ar    1  UNL1        0.0786
     16 C         142.4568  128.5019  153.1606 C.3     1  UNL1        0.0538
     17 C         142.6304  130.9209  154.2845 C.ar    1  UNL1        0.0963
     18 C         145.0016  132.1945  157.8668 C.3     1  UNL1        0.2525
     19 O         143.6505  132.0879  157.2240 O.3     1  UNL1       -0.4700
     20 C         142.9603  140.0119  159.9672 C.3     1  UNL1        0.2141
     21 C         141.8760  139.7331  160.9655 C.2     1  UNL1        0.2545
     22 O         140.4653  140.1543  160.6780 O.2     1  UNL1       -0.2724
     23 N         142.2024  139.0331  162.2514 N.am    1  UNL1       -0.2488
     24 C         141.1181  138.7543  163.2498 C.ar    1  UNL1        0.0538
     25 C         140.1612  137.6221  163.0213 C.ar    1  UNL1        0.0146
     26 C         139.0770  137.3433  164.0196 C.ar    1  UNL1       -0.0033
     27 C         138.9496  138.1969  165.2465 C.ar    1  UNL1       -0.0260
     28 C         139.9065  139.3292  165.4750 C.ar    1  UNL1       -0.0249
     29 C         140.9908  139.6079  164.4767 C.ar    1  UNL1        0.0103
     30 C         139.5370  139.9947  166.7675 C.3     1  UNL1        0.0264
     31 C         138.3516  139.2737  167.3377 C.3     1  UNL1        0.0093
     32 C         137.9886  138.1626  166.3977 C.3     1  UNL1        0.0264
     33 C         143.6130  138.6119  162.5390 C.3     1  UNL1        0.2016
     34 C         144.4545  139.4091  163.4911 C.3     1  UNL1        0.4160
     35 F         145.2959  140.2061  164.4433 F       1  UNL1       -0.1682
     36 F         144.9043  140.2854  162.3599 F       1  UNL1       -0.1682
     37 F         144.0046  138.5327  164.6224 F       1  UNL1       -0.1682
@<TRIPOS>BOND
     1    18    19    1
     2    19     6    1
     3     6     7   ar
     4     7     8   ar
     5     8     1    1
     6     1     2   ar
     7     2     3   ar
     8     3    20    1
     9    20    21    1
    10    21    22    2
    11    21    23   am
    12    23    33    1
    13    33    34    1
    14    34    35    1
    15    34    36    1
    16    34    37    1
    17    23    24    1
    18    24    25   ar
    19    25    26   ar
    20    26    27   ar
    21    27    28   ar
    22    28    29   ar
    23    28    30    1
    24    30    31    1
    25    31    32    1
    26     3     4   ar
    27     4     5   ar
    28     8     9   ar
    29     9    10   ar
    30    10    11   ar
    31    11    12    1
    32    12    13   ar
    33    13    14   ar
    34    14    15   ar
    35    15    16    1
    36    15    17   ar
    37    11     6   ar
    38    17    12   ar
    39     5     1   ar
    40    29    24   ar
    41    32    27    1
@<TRIPOS>MOLECULE
*****
 37 41 0 0 0
SMALL
GASTEIGER

@<TRIPOS>ATOM
      1 C         142.5955  140.6032  159.4078 C.ar    1  UNL1        0.1233
      2 C         142.2205  140.0548  160.7526 C.ar    1  UNL1        0.1181
      3 N         143.2202  138.9975  161.1172 N.ar    1  UNL1       -0.2208
      4 N         144.2130  138.8925  159.9977 N.ar    1  UNL1       -0.0633
      5 N         143.8269  139.8849  158.9412 N.ar    1  UNL1       -0.1287
      6 C         140.4815  143.8786  158.6642 C.ar    1  UNL1        0.1547
      7 C         141.2100  142.8011  159.4113 C.ar    1  UNL1        0.0400
      8 C         141.8669  141.6808  158.6608 C.ar    1  UNL1        0.0241
      9 C         141.7953  141.6380  157.1631 C.ar    1  UNL1        0.0033
     10 C         141.0668  142.7155  156.4160 C.ar    1  UNL1        0.0207
     11 C         140.4099  143.8358  157.1665 C.ar    1  UNL1        0.0994
     12 N         139.6813  144.9134  156.4195 N.ar    1  UNL1       -0.2839
     13 C         138.3960  144.7478  155.6639 C.ar    1  UNL1        0.1826
     14 N         138.0304  146.0777  155.0743 N.ar    1  UNL1       -0.2280
     15 C         139.0896  147.0652  155.4655 C.ar    1  UNL1        0.0786
     16 C         139.1228  148.5173  155.0911 C.3     1  UNL1        0.0538
     17 C         140.1098  146.3455  156.2969 C.ar    1  UNL1        0.0963
     18 C         140.4106  145.4794  160.7093 C.3     1  UNL1        0.2525
     19 O         139.8246  144.9989  159.4148 O.3     1  UNL1       -0.4700
     20 C         143.2260  138.1874  162.3797 C.3     1  UNL1        0.2141
     21 C         143.3992  138.8667  163.7058 C.2     1  UNL1        0.2545
     22 O         144.7758  139.1652  164.2215 O.2     1  UNL1       -0.2724
     23 N         142.1958  139.2476  164.5162 N.am    1  UNL1       -0.2488
     24 C         142.3691  139.9270  165.8423 C.ar    1  UNL1        0.0538
     25 C         142.5894  141.4094  165.9025 C.ar    1  UNL1        0.0146
     26 C         142.7626  142.0887  167.2286 C.ar    1  UNL1       -0.0033
     27 C         142.7155  141.2855  168.4945 C.ar    1  UNL1       -0.0260
     28 C         142.4952  139.8030  168.4344 C.ar    1  UNL1       -0.0249
     29 C         142.3220  139.1237  167.1083 C.ar    1  UNL1        0.0103
     30 C         142.4963  139.2768  169.8391 C.3     1  UNL1        0.0264
     31 C         142.7174  140.4342  170.7673 C.3     1  UNL1        0.0093
     32 C         142.8528  141.6756  169.9364 C.3     1  UNL1        0.0264
     33 C         140.8192  138.9492  164.0005 C.3     1  UNL1        0.2016
     34 C         139.9320  137.9927  164.7408 C.3     1  UNL1        0.4160
     35 F         139.0449  137.0362  165.4810 F       1  UNL1       -0.1682
     36 F         138.9458  139.0963  164.9846 F       1  UNL1       -0.1682
     37 F         140.9184  136.8891  164.4969 F       1  UNL1       -0.1682
@<TRIPOS>BOND
     1    18    19    1
     2    19     6    1
     3     6     7   ar
     4     7     8   ar
     5     8     1    1
     6     1     2   ar
     7     2     3   ar
     8     3    20    1
     9    20    21    1
    10    21    22    2
    11    21    23   am
    12    23    33    1
    13    33    34    1
    14    34    35    1
    15    34    36    1
    16    34    37    1
    17    23    24    1
    18    24    25   ar
    19    25    26   ar
    20    26    27   ar
    21    27    28   ar
    22    28    29   ar
    23    28    30    1
    24    30    31    1
    25    31    32    1
    26     3     4   ar
    27     4     5   ar
    28     8     9   ar
    29     9    10   ar
    30    10    11   ar
    31    11    12    1
    32    12    13   ar
    33    13    14   ar
    34    14    15   ar
    35    15    16    1
    36    15    17   ar
    37    11     6   ar
    38    17    12   ar
    39     5     1   ar
    40    29    24   ar
    41    32    27    1
@<TRIPOS>MOLECULE
*****
 37 41 0 0 0
SMALL
GASTEIGER

@<TRIPOS>ATOM
      1 C         141.9976  142.2728  159.9532 C.ar    1  UNL1        0.1233
      2 C         142.0629  142.4439  161.4419 C.ar    1  UNL1        0.1181
      3 N         142.0476  143.9138  161.7407 N.ar    1  UNL1       -0.2208
      4 N         141.9728  144.6511  160.4366 N.ar    1  UNL1       -0.0633
      5 N         141.9420  143.6370  159.3318 N.ar    1  UNL1       -0.1287
      6 C         143.0523  139.3613  157.4712 C.ar    1  UNL1        0.1547
      7 C         143.0606  140.6672  158.2089 C.ar    1  UNL1        0.0400
      8 C         141.9895  140.9668  159.2154 C.ar    1  UNL1        0.0241
      9 C         140.9101  139.9604  159.4841 C.ar    1  UNL1        0.0033
     10 C         140.9019  138.6545  158.7463 C.ar    1  UNL1        0.0207
     11 C         141.9730  138.3549  157.7399 C.ar    1  UNL1        0.0994
     12 N         141.9648  137.0488  157.0020 N.ar    1  UNL1       -0.2839
     13 C         141.0072  136.6555  155.9164 C.ar    1  UNL1        0.1826
     14 N         141.3633  135.2706  155.4637 N.ar    1  UNL1       -0.2280
     15 C         142.5409  134.8079  156.2694 C.ar    1  UNL1        0.0786
     16 C         143.2265  133.4795  156.1461 C.3     1  UNL1        0.0538
     17 C         142.9126  135.9070  157.2201 C.ar    1  UNL1        0.0963
     18 C         144.9907  140.1677  155.9407 C.3     1  UNL1        0.2525
     19 O         144.1234  139.0617  156.4647 O.3     1  UNL1       -0.4700
     20 C         142.0981  144.5369  163.1043 C.3     1  UNL1        0.2141
     21 C         141.9925  143.6747  164.3272 C.2     1  UNL1        0.2545
     22 O         143.2265  143.3166  165.1013 O.2     1  UNL1       -0.2724
     23 N         140.6530  143.1706  164.7760 N.am    1  UNL1       -0.2488
     24 C         140.5474  142.3084  165.9990 C.ar    1  UNL1        0.0538
     25 C         140.4096  140.8214  165.8586 C.ar    1  UNL1        0.0146
     26 C         140.3040  139.9592  167.0815 C.ar    1  UNL1       -0.0033
     27 C         140.3362  140.5841  168.4448 C.ar    1  UNL1       -0.0260
     28 C         140.4740  142.0711  168.5852 C.ar    1  UNL1       -0.0249
     29 C         140.5796  142.9333  167.3623 C.ar    1  UNL1        0.0103
     30 C         140.4763  142.4004  170.0486 C.3     1  UNL1        0.0264
     31 C         140.3399  141.1168  170.8126 C.3     1  UNL1        0.0093
     32 C         140.2534  139.9942  169.8214 C.3     1  UNL1        0.0264
     33 C         139.4190  143.5287  164.0020 C.3     1  UNL1        0.2016
     34 C         138.2334  144.1146  164.7097 C.3     1  UNL1        0.4160
     35 F         137.0477  144.7004  165.4174 F       1  UNL1       -0.1682
     36 F         139.0884  145.2413  165.2092 F       1  UNL1       -0.1682
     37 F         137.3784  142.9878  164.2102 F       1  UNL1       -0.1682
@<TRIPOS>BOND
     1    18    19    1
     2    19     6    1
     3     6     7   ar
     4     7     8   ar
     5     8     1    1
     6     1     2   ar
     7     2     3   ar
     8     3    20    1
     9    20    21    1
    10    21    22    2
    11    21    23   am
    12    23    33    1
    13    33    34    1
    14    34    35    1
    15    34    36    1
    16    34    37    1
    17    23    24    1
    18    24    25   ar
    19    25    26   ar
    20    26    27   ar
    21    27    28   ar
    22    28    29   ar
    23    28    30    1
    24    30    31    1
    25    31    32    1
    26     3     4   ar
    27     4     5   ar
    28     8     9   ar
    29     9    10   ar
    30    10    11   ar
    31    11    12    1
    32    12    13   ar
    33    13    14   ar
    34    14    15   ar
    35    15    16    1
    36    15    17   ar
    37    11     6   ar
    38    17    12   ar
    39     5     1   ar
    40    29    24   ar
    41    32    27    1
@<TRIPOS>MOLECULE
*****
 37 41 0 0 0
SMALL
GASTEIGER

@<TRIPOS>ATOM
      1 C         139.9424  142.1604  159.9551 C.ar    1  UNL1        0.1233
      2 C         139.6608  141.3478  161.1841 C.ar    1  UNL1        0.1181
      3 N         138.3571  141.8152  161.7602 N.ar    1  UNL1       -0.2208
      4 N         137.8329  142.9167  160.8873 N.ar    1  UNL1       -0.0633
      5 N         138.8126  143.1300  159.7717 N.ar    1  UNL1       -0.1287
      6 C         142.9789  140.5501  157.9710 C.ar    1  UNL1        0.1547
      7 C         141.7784  140.6836  158.8604 C.ar    1  UNL1        0.0400
      8 C         141.1429  142.0267  159.0658 C.ar    1  UNL1        0.0241
      9 C         141.7078  143.2363  158.3819 C.ar    1  UNL1        0.0033
     10 C         142.9083  143.1028  157.4925 C.ar    1  UNL1        0.0207
     11 C         143.5438  141.7597  157.2871 C.ar    1  UNL1        0.0994
     12 N         144.7444  141.6260  156.3977 N.ar    1  UNL1       -0.2839
     13 C         144.7402  141.1425  154.9777 C.ar    1  UNL1        0.1826
     14 N         146.1529  141.1700  154.4746 N.ar    1  UNL1       -0.2280
     15 C         147.0303  141.6706  155.5835 C.ar    1  UNL1        0.0786
     16 C         148.5172  141.8567  155.5159 C.3     1  UNL1        0.0538
     17 C         146.1597  141.9524  156.7720 C.ar    1  UNL1        0.0963
     18 C         142.9997  138.2241  156.8137 C.3     1  UNL1        0.2525
     19 O         143.6144  139.2070  157.7656 O.3     1  UNL1       -0.4700
     20 C         137.6939  141.2758  162.9928 C.3     1  UNL1        0.2141
     21 C         138.3665  141.4117  164.3267 C.2     1  UNL1        0.2545
     22 O         138.4288  142.7495  165.0025 O.2     1  UNL1       -0.2724
     23 N         138.9767  140.2099  164.9849 N.am    1  UNL1       -0.2488
     24 C         139.6492  140.3458  166.3189 C.ar    1  UNL1        0.0538
     25 C         138.9952  139.7894  167.5487 C.ar    1  UNL1        0.0146
     26 C         139.6677  139.9253  168.8826 C.ar    1  UNL1       -0.0033
     27 C         140.9943  140.6177  168.9866 C.ar    1  UNL1       -0.0260
     28 C         141.6484  141.1742  167.7567 C.ar    1  UNL1       -0.0249
     29 C         140.9759  141.0383  166.4228 C.ar    1  UNL1        0.0103
     30 C         142.9482  141.8010  168.1661 C.3     1  UNL1        0.0264
     31 C         143.0974  141.6319  169.6491 C.3     1  UNL1        0.0093
     32 C         141.8899  140.9006  170.1561 C.3     1  UNL1        0.0264
     33 C         138.9144  138.8721  164.3093 C.3     1  UNL1        0.2016
     34 C         139.9875  137.8545  164.5601 C.3     1  UNL1        0.4160
     35 F         141.0606  136.8370  164.8109 F       1  UNL1       -0.1682
     36 F         139.0421  137.0697  165.4205 F       1  UNL1       -0.1682
     37 F         140.9329  138.6394  163.6997 F       1  UNL1       -0.1682
@<TRIPOS>BOND
     1    18    19    1
     2    19     6    1
     3     6     7   ar
     4     7     8   ar
     5     8     1    1
     6     1     2   ar
     7     2     3   ar
     8     3    20    1
     9    20    21    1
    10    21    22    2
    11    21    23   am
    12    23    33    1
    13    33    34    1
    14    34    35    1
    15    34    36    1
    16    34    37    1
    17    23    24    1
    18    24    25   ar
    19    25    26   ar
    20    26    27   ar
    21    27    28   ar
    22    28    29   ar
    23    28    30    1
    24    30    31    1
    25    31    32    1
    26     3     4   ar
    27     4     5   ar
    28     8     9   ar
    29     9    10   ar
    30    10    11   ar
    31    11    12    1
    32    12    13   ar
    33    13    14   ar
    34    14    15   ar
    35    15    16    1
    36    15    17   ar
    37    11     6   ar
    38    17    12   ar
    39     5     1   ar
    40    29    24   ar
    41    32    27    1
@<TRIPOS>MOLECULE
*****
 37 41 0 0 0
SMALL
GASTEIGER

@<TRIPOS>ATOM
      1 C         142.8796  137.1669  157.7171 C.ar    1  UNL1        0.1233
      2 C         142.7694  137.2659  159.2098 C.ar    1  UNL1        0.1181
      3 N         143.2075  138.6416  159.6167 N.ar    1  UNL1       -0.2208
      4 N         143.5885  139.3928  158.3755 N.ar    1  UNL1       -0.0633
      5 N         143.3859  138.4815  157.2015 N.ar    1  UNL1       -0.1287
      6 C         142.8673  133.4459  156.3373 C.ar    1  UNL1        0.1547
      7 C         143.2043  134.6483  157.1684 C.ar    1  UNL1        0.0400
      8 C         142.5427  135.9645  156.8860 C.ar    1  UNL1        0.0241
      9 C         141.5441  136.0784  155.7725 C.ar    1  UNL1        0.0033
     10 C         141.2071  134.8761  154.9414 C.ar    1  UNL1        0.0207
     11 C         141.8687  133.5599  155.2238 C.ar    1  UNL1        0.0994
     12 N         141.5318  132.3574  154.3927 N.ar    1  UNL1       -0.2839
     13 C         142.0209  132.0820  153.0015 C.ar    1  UNL1        0.1826
     14 N         141.4381  130.7738  152.5558 N.ar    1  UNL1       -0.2280
     15 C         140.5889  130.2406  153.6714 C.ar    1  UNL1        0.0786
     16 C         139.8172  128.9544  153.6548 C.3     1  UNL1        0.0538
     17 C         140.6468  131.2193  154.8066 C.ar    1  UNL1        0.0963
     18 C         145.0168  131.9943  156.4863 C.3     1  UNL1        0.2525
     19 O         143.5289  132.1297  156.6196 O.3     1  UNL1       -0.4700
     20 C         143.2562  139.1727  161.0187 C.3     1  UNL1        0.2141
     21 C         142.3039  140.2501  161.4459 C.2     1  UNL1        0.2545
     22 O         142.4085  141.6230  160.8505 O.2     1  UNL1       -0.2724
     23 N         141.2471  139.9547  162.4685 N.am    1  UNL1       -0.2488
     24 C         140.2948  141.0322  162.8958 C.ar    1  UNL1        0.0538
     25 C         139.0168  141.2462  162.1405 C.ar    1  UNL1        0.0146
     26 C         138.0645  142.3236  162.5677 C.ar    1  UNL1       -0.0033
     27 C         138.3904  143.1869  163.7502 C.ar    1  UNL1       -0.0260
     28 C         139.6686  142.9729  164.5056 C.ar    1  UNL1       -0.0249
     29 C         140.6208  141.8955  164.0784 C.ar    1  UNL1        0.0103
     30 C         139.7197  143.9723  165.6229 C.3     1  UNL1        0.0264
     31 C         138.4731  144.8041  165.5581 C.3     1  UNL1        0.0093
     32 C         137.6516  144.3187  164.4007 C.3     1  UNL1        0.0264
     33 C         141.1425  138.5820  163.0640 C.3     1  UNL1        0.2016
     34 C         139.8277  137.8599  163.0576 C.3     1  UNL1        0.4160
     35 F         138.5130  137.1378  163.0512 F       1  UNL1       -0.1682
     36 F         139.6797  138.1165  164.5281 F       1  UNL1       -0.1682
     37 F         139.9758  137.6033  161.5871 F       1  UNL1       -0.1682
@<TRIPOS>BOND
     1    18    19    1
     2    19     6    1
     3     6     7   ar
     4     7     8   ar
     5     8     1    1
     6     1     2   ar
     7     2     3   ar
     8     3    20    1
     9    20    21    1
    10    21    22    2
    11    21    23   am
    12    23    33    1
    13    33    34    1
    14    34    35    1
    15    34    36    1
    16    34    37    1
    17    23    24    1
    18    24    25   ar
    19    25    26   ar
    20    26    27   ar
    21    27    28   ar
    22    28    29   ar
    23    28    30    1
    24    30    31    1
    25    31    32    1
    26     3     4   ar
    27     4     5   ar
    28     8     9   ar
    29     9    10   ar
    30    10    11   ar
    31    11    12    1
    32    12    13   ar
    33    13    14   ar
    34    14    15   ar
    35    15    16    1
    36    15    17   ar
    37    11     6   ar
    38    17    12   ar
    39     5     1   ar
    40    29    24   ar
    41    32    27    1
@<TRIPOS>MOLECULE
*****
 37 41 0 0 0
SMALL
GASTEIGER

@<TRIPOS>ATOM
      1 C         140.8141  138.6433  159.5661 C.ar    1  UNL1        0.1233
      2 C         141.2485  138.4312  160.9860 C.ar    1  UNL1        0.1181
      3 N         140.0340  138.0856  161.7957 N.ar    1  UNL1       -0.2208
      4 N         138.8489  138.0840  160.8761 N.ar    1  UNL1       -0.0633
      5 N         139.3310  138.4286  159.4982 N.ar    1  UNL1       -0.1287
      6 C         143.4343  138.3147  156.6036 C.ar    1  UNL1        0.1547
      7 C         142.5423  137.9517  157.7536 C.ar    1  UNL1        0.0400
      8 C         141.7061  139.0062  158.4161 C.ar    1  UNL1        0.0241
      9 C         141.7619  140.4236  157.9285 C.ar    1  UNL1        0.0033
     10 C         142.6539  140.7867  156.7785 C.ar    1  UNL1        0.0207
     11 C         143.4901  139.7322  156.1161 C.ar    1  UNL1        0.0994
     12 N         144.3822  140.0951  154.9660 N.ar    1  UNL1       -0.2839
     13 C         144.1570  139.7342  153.5275 C.ar    1  UNL1        0.1826
     14 N         145.2915  140.2986  152.7250 N.ar    1  UNL1       -0.2280
     15 C         146.2179  141.0083  153.6673 C.ar    1  UNL1        0.0786
     16 C         147.4840  141.7191  153.2909 C.3     1  UNL1        0.0538
     17 C         145.6558  140.8826  155.0523 C.ar    1  UNL1        0.0963
     18 C         143.6116  136.0848  155.2823 C.3     1  UNL1        0.2525
     19 O         144.2705  137.2603  155.9411 O.3     1  UNL1       -0.4700
     20 C         140.0090  137.7929  163.2667 C.3     1  UNL1        0.2141
     21 C         139.8990  138.9174  164.2533 C.2     1  UNL1        0.2545
     22 O         138.7140  139.8364  164.2142 O.2     1  UNL1       -0.2724
     23 N         140.9740  139.1230  165.2790 N.am    1  UNL1       -0.2488
     24 C         140.8640  140.2476  166.2657 C.ar    1  UNL1        0.0538
     25 C         141.3750  141.6117  165.9081 C.ar    1  UNL1        0.0146
     26 C         141.2650  142.7362  166.8947 C.ar    1  UNL1       -0.0033
     27 C         140.6440  142.4965  168.2389 C.ar    1  UNL1       -0.0260
     28 C         140.1330  141.1324  168.5965 C.ar    1  UNL1       -0.0249
     29 C         140.2429  140.0079  167.6099 C.ar    1  UNL1        0.0103
     30 C         139.5737  141.1966  169.9868 C.3     1  UNL1        0.0264
     31 C         139.7391  142.6005  170.4885 C.3     1  UNL1        0.0093
     32 C         140.4006  143.4039  169.4082 C.3     1  UNL1        0.0264
     33 C         142.1589  138.2041  165.3182 C.3     1  UNL1        0.2016
     34 C         143.5401  138.7522  165.1133 C.3     1  UNL1        0.4160
     35 F         144.9212  139.3003  164.9084 F       1  UNL1       -0.1682
     36 F         143.8531  138.5036  166.5591 F       1  UNL1       -0.1682
     37 F         143.2270  139.0008  163.6675 F       1  UNL1       -0.1682
@<TRIPOS>BOND
     1    18    19    1
     2    19     6    1
     3     6     7   ar
     4     7     8   ar
     5     8     1    1
     6     1     2   ar
     7     2     3   ar
     8     3    20    1
     9    20    21    1
    10    21    22    2
    11    21    23   am
    12    23    33    1
    13    33    34    1
    14    34    35    1
    15    34    36    1
    16    34    37    1
    17    23    24    1
    18    24    25   ar
    19    25    26   ar
    20    26    27   ar
    21    27    28   ar
    22    28    29   ar
    23    28    30    1
    24    30    31    1
    25    31    32    1
    26     3     4   ar
    27     4     5   ar
    28     8     9   ar
    29     9    10   ar
    30    10    11   ar
    31    11    12    1
    32    12    13   ar
    33    13    14   ar
    34    14    15   ar
    35    15    16    1
    36    15    17   ar
    37    11     6   ar
    38    17    12   ar
    39     5     1   ar
    40    29    24   ar
    41    32    27    1
@<TRIPOS>MOLECULE
*****
 37 41 0 0 0
SMALL
GASTEIGER

@<TRIPOS>ATOM
      1 C         138.2890  139.8119  159.7170 C.ar    1  UNL1        0.1233
      2 C         139.3541  139.3851  158.7509 C.ar    1  UNL1        0.1181
      3 N         138.8474  139.6364  157.3616 N.ar    1  UNL1       -0.2208
      4 N         137.4692  140.2185  157.4690 N.ar    1  UNL1       -0.0633
      5 N         137.1241  140.3270  158.9247 N.ar    1  UNL1       -0.1287
      6 C         138.0134  140.8246  163.5443 C.ar    1  UNL1        0.1547
      7 C         137.9283  140.8998  162.0486 C.ar    1  UNL1        0.0400
      8 C         138.3741  139.7368  161.2126 C.ar    1  UNL1        0.0241
      9 C         138.9049  138.4987  161.8724 C.ar    1  UNL1        0.0033
     10 C         138.9899  138.4235  163.3681 C.ar    1  UNL1        0.0207
     11 C         138.5442  139.5865  164.2040 C.ar    1  UNL1        0.0994
     12 N         138.6292  139.5114  165.6998 N.ar    1  UNL1       -0.2839
     13 C         137.7143  138.7313  166.5968 C.ar    1  UNL1        0.1826
     14 N         138.1636  138.9409  168.0124 N.ar    1  UNL1       -0.2280
     15 C         139.3561  139.8505  167.9904 C.ar    1  UNL1        0.0786
     16 C         140.1258  140.3245  169.1874 C.3     1  UNL1        0.0538
     17 C         139.6438  140.2031  166.5611 C.ar    1  UNL1        0.0963
     18 C         138.4070  143.2290  164.4466 C.3     1  UNL1        0.2525
     19 O         137.5676  141.9876  164.3802 O.3     1  UNL1       -0.4700
     20 C         139.5888  139.3549  156.0883 C.3     1  UNL1        0.2141
     21 C         139.8708  137.9388  155.6820 C.2     1  UNL1        0.2545
     22 O         138.8195  136.8837  155.8606 O.2     1  UNL1       -0.2724
     23 N         141.2040  137.5776  155.0972 N.am    1  UNL1       -0.2488
     24 C         141.4860  136.1613  154.6909 C.ar    1  UNL1        0.0538
     25 C         141.4935  135.7850  153.2390 C.ar    1  UNL1        0.0146
     26 C         141.7755  134.3689  152.8327 C.ar    1  UNL1       -0.0033
     27 C         142.0498  133.3291  153.8784 C.ar    1  UNL1       -0.0260
     28 C         142.0423  133.7054  155.3304 C.ar    1  UNL1       -0.0249
     29 C         141.7603  135.1216  155.7367 C.ar    1  UNL1        0.0103
     30 C         142.3454  132.4732  156.1303 C.3     1  UNL1        0.0264
     31 C         142.5403  131.3353  155.1726 C.3     1  UNL1        0.0093
     32 C         142.3577  131.8643  153.7809 C.3     1  UNL1        0.0264
     33 C         142.2553  138.6325  154.9186 C.3     1  UNL1        0.2016
     34 C         143.7060  138.2764  155.0551 C.3     1  UNL1        0.4160
     35 F         145.1566  137.9202  155.1915 F       1  UNL1       -0.1682
     36 F         143.4817  137.9144  156.4934 F       1  UNL1       -0.1682
     37 F         143.9302  138.6384  153.6168 F       1  UNL1       -0.1682
@<TRIPOS>BOND
     1    18    19    1
     2    19     6    1
     3     6     7   ar
     4     7     8   ar
     5     8     1    1
     6     1     2   ar
     7     2     3   ar
     8     3    20    1
     9    20    21    1
    10    21    22    2
    11    21    23   am
    12    23    33    1
    13    33    34    1
    14    34    35    1
    15    34    36    1
    16    34    37    1
    17    23    24    1
    18    24    25   ar
    19    25    26   ar
    20    26    27   ar
    21    27    28   ar
    22    28    29   ar
    23    28    30    1
    24    30    31    1
    25    31    32    1
    26     3     4   ar
    27     4     5   ar
    28     8     9   ar
    29     9    10   ar
    30    10    11   ar
    31    11    12    1
    32    12    13   ar
    33    13    14   ar
    34    14    15   ar
    35    15    16    1
    36    15    17   ar
    37    11     6   ar
    38    17    12   ar
    39     5     1   ar
    40    29    24   ar
    41    32    27    1
@<TRIPOS>MOLECULE
*****
 37 41 0 0 0
SMALL
GASTEIGER

@<TRIPOS>ATOM
      1 C         140.6975  141.4919  159.3223 C.ar    1  UNL1        0.1233
      2 C         140.2151  141.1971  160.7117 C.ar    1  UNL1        0.1181
      3 N         140.6844  139.8216  161.0832 N.ar    1  UNL1       -0.2208
      4 N         141.4567  139.2663  159.9234 N.ar    1  UNL1       -0.0633
      5 N         141.4648  140.2986  158.8351 N.ar    1  UNL1       -0.1287
      6 C         139.1325  144.0752  156.7480 C.ar    1  UNL1        0.1547
      7 C         139.3749  142.8094  157.5154 C.ar    1  UNL1        0.0400
      8 C         140.4550  142.7577  158.5549 C.ar    1  UNL1        0.0241
      9 C         141.2927  143.9718  158.8272 C.ar    1  UNL1        0.0033
     10 C         141.0503  145.2377  158.0598 C.ar    1  UNL1        0.0207
     11 C         139.9702  145.2894  157.0202 C.ar    1  UNL1        0.0994
     12 N         139.7277  146.5553  156.2528 N.ar    1  UNL1       -0.2839
     13 C         140.1743  146.8339  154.8481 C.ar    1  UNL1        0.1826
     14 N         139.7187  148.2154  154.4824 N.ar    1  UNL1       -0.2280
     15 C         138.9907  148.7906  155.6610 C.ar    1  UNL1        0.0786
     16 C         138.3666  150.1527  155.7330 C.3     1  UNL1        0.0538
     17 C         138.9963  147.7646  156.7551 C.ar    1  UNL1        0.0963
     18 C         138.2085  143.3644  154.4262 C.3     1  UNL1        0.2525
     19 O         138.0524  144.1269  155.7085 O.3     1  UNL1       -0.4700
     20 C         140.4265  139.1240  162.3859 C.3     1  UNL1        0.2141
     21 C         140.9993  139.6751  163.6579 C.2     1  UNL1        0.2545
     22 O         142.4119  140.1787  163.6882 O.2     1  UNL1       -0.2724
     23 N         140.1595  139.7225  164.8999 N.am    1  UNL1       -0.2488
     24 C         140.7323  140.2737  166.1720 C.ar    1  UNL1        0.0538
     25 C         141.8482  139.5514  166.8668 C.ar    1  UNL1        0.0146
     26 C         142.4210  140.1025  168.1389 C.ar    1  UNL1       -0.0033
     27 C         141.8777  141.3759  168.7162 C.ar    1  UNL1       -0.0260
     28 C         140.7617  142.0982  168.0214 C.ar    1  UNL1       -0.0249
     29 C         140.1889  141.5471  166.7493 C.ar    1  UNL1        0.0103
     30 C         140.4330  143.3232  168.8222 C.3     1  UNL1        0.0264
     31 C         141.3459  143.3580  170.0119 C.3     1  UNL1        0.0093
     32 C         142.2388  142.1545  169.9464 C.3     1  UNL1        0.0264
     33 C         138.7468  139.2189  164.8697 C.3     1  UNL1        0.2016
     34 C         138.3295  138.1013  165.7789 C.3     1  UNL1        0.4160
     35 F         137.9121  136.9837  166.6882 F       1  UNL1       -0.1682
     36 F         139.1759  137.1451  164.9921 F       1  UNL1       -0.1682
     37 F         137.4830  139.0576  166.5658 F       1  UNL1       -0.1682
@<TRIPOS>BOND
     1    18    19    1
     2    19     6    1
     3     6     7   ar
     4     7     8   ar
     5     8     1    1
     6     1     2   ar
     7     2     3   ar
     8     3    20    1
     9    20    21    1
    10    21    22    2
    11    21    23   am
    12    23    33    1
    13    33    34    1
    14    34    35    1
    15    34    36    1
    16    34    37    1
    17    23    24    1
    18    24    25   ar
    19    25    26   ar
    20    26    27   ar
    21    27    28   ar
    22    28    29   ar
    23    28    30    1
    24    30    31    1
    25    31    32    1
    26     3     4   ar
    27     4     5   ar
    28     8     9   ar
    29     9    10   ar
    30    10    11   ar
    31    11    12    1
    32    12    13   ar
    33    13    14   ar
    34    14    15   ar
    35    15    16    1
    36    15    17   ar
    37    11     6   ar
    38    17    12   ar
    39     5     1   ar
    40    29    24   ar
    41    32    27    1
