@<TRIPOS>MOLECULE
*****
 36 39 0 0 0
SMALL
GASTEIGER

@<TRIPOS>ATOM
      1 C         142.0744  138.1674  160.9062 C.3     1  UNL1        0.0413
      2 C         142.9843  137.5779  159.8696 C.3     1  UNL1        0.0768
      3 N         142.3050  137.6925  158.5372 N.3     1  UNL1       -0.2686
      4 C         140.9751  138.3529  158.7503 C.3     1  UNL1        0.0744
      5 C         140.8327  138.6464  160.2144 C.3     1  UNL1        0.0410
      6 C         142.9213  138.4495  165.3168 C.ar    1  UNL1        0.1387
      7 C         143.8139  139.1494  164.3354 C.ar    1  UNL1        0.0366
      8 C         143.5317  139.0554  162.8653 C.ar    1  UNL1       -0.0011
      9 C         142.3567  138.2614  162.3764 C.ar    1  UNL1       -0.0209
     10 C         141.4641  137.5614  163.3578 C.ar    1  UNL1       -0.0011
     11 C         141.7463  137.6554  164.8280 C.ar    1  UNL1        0.0366
     12 C         142.4847  139.5586  167.6253 C.3     1  UNL1        0.2525
     13 O         143.2036  138.5435  166.7870 O.3     1  UNL1       -0.4714
     14 C         142.8583  137.2283  157.2226 C.3     1  UNL1        0.0993
     15 C         142.6137  135.8224  156.7604 C.ar    1  UNL1       -0.0029
     16 C         141.5854  135.5486  155.7032 C.ar    1  UNL1        0.0004
     17 C         141.3409  134.1427  155.2411 C.ar    1  UNL1        0.0398
     18 C         142.1247  133.0106  155.8361 C.ar    1  UNL1        0.1724
     19 C         143.1530  133.2843  156.8932 C.ar    1  UNL1        0.1721
     20 C         143.3975  134.6903  157.3554 C.ar    1  UNL1        0.0371
     21 O         141.8802  131.6046  155.3740 O.3     1  UNL1       -0.4684
     22 C         140.6188  131.2664  154.6360 C.3     1  UNL1        0.2526
     23 O         143.9367  132.1523  157.4882 O.3     1  UNL1       -0.4684
     24 C         145.3238  132.3914  158.0068 C.3     1  UNL1        0.2526
     25 C         139.6551  139.3035  160.8714 C.3     1  UNL1        0.0914
     26 N         139.8575  140.5086  161.7413 N.am    1  UNL1       -0.3008
     27 C         138.6770  141.3227  162.1814 C.2     1  UNL1        0.2459
     28 O         137.2941  140.9317  161.7517 O.2     1  UNL1       -0.2701
     29 H         140.7651  140.7653  162.0233 H       1  UNL1        0.1497
     30 C         138.8794  142.5278  163.0513 C.ar    1  UNL1        0.0542
     31 C         137.7829  142.9842  163.9674 C.ar    1  UNL1        0.0046
     32 C         137.9853  144.1894  164.8373 C.ar    1  UNL1        0.0010
     33 C         139.2842  144.9381  164.7912 C.ar    1  UNL1        0.0114
     34 C         140.3808  144.4816  163.8750 C.ar    1  UNL1        0.0578
     35 CL        141.6798  145.2303  163.8288 Cl      1  UNL1       -0.0822
     36 C         140.1783  143.2765  163.0052 C.ar    1  UNL1        0.0159
@<TRIPOS>BOND
     1    12    13    1
     2    13     6    1
     3     6     7   ar
     4     7     8   ar
     5     8     9   ar
     6     1     9    1
     7     1     2    1
     8     2     3    1
     9     3    14    1
    10    14    15    1
    11    15    16   ar
    12    16    17   ar
    13    17    18   ar
    14    18    21    1
    15    21    22    1
    16    18    19   ar
    17    19    23    1
    18    23    24    1
    19    19    20   ar
    20     3     4    1
    21     4     5    1
    22     5    25    1
    23    25    26    1
    24    26    27   am
    25    27    28    2
    26    27    30    1
    27    30    31   ar
    28    31    32   ar
    29    32    33   ar
    30    33    34   ar
    31    34    35    1
    32    34    36   ar
    33     9    10   ar
    34    10    11   ar
    35    11     6   ar
    36     5     1    1
    37    36    30   ar
    38    20    15   ar
    39    26    29    1
@<TRIPOS>MOLECULE
*****
 36 39 0 0 0
SMALL
GASTEIGER

@<TRIPOS>ATOM
      1 C         141.0858  139.1435  161.7911 C.3     1  UNL1        0.0413
      2 C         140.6367  139.1674  160.3601 C.3     1  UNL1        0.0768
      3 N         141.8586  139.2211  159.4917 N.3     1  UNL1       -0.2686
      4 C         143.0628  139.2305  160.3860 C.3     1  UNL1        0.0744
      5 C         142.5852  139.1825  161.8071 C.3     1  UNL1        0.0410
      6 C         138.4054  138.9831  165.4022 C.ar    1  UNL1        0.1387
      7 C         139.0674  137.7330  164.9034 C.ar    1  UNL1        0.0366
      8 C         139.9609  137.7865  163.6997 C.ar    1  UNL1       -0.0011
      9 C         140.1923  139.0901  162.9948 C.ar    1  UNL1       -0.0209
     10 C         139.5303  140.3402  163.4936 C.ar    1  UNL1       -0.0011
     11 C         138.6368  140.2868  164.6973 C.ar    1  UNL1        0.0366
     12 C         137.2071  137.6126  167.2557 C.3     1  UNL1        0.2525
     13 O         137.5119  138.9297  166.6059 O.3     1  UNL1       -0.4714
     14 C         141.8736  139.2589  157.9922 C.3     1  UNL1        0.0993
     15 C         141.7578  137.9850  157.2088 C.ar    1  UNL1       -0.0029
     16 C         140.5691  137.7544  156.3235 C.ar    1  UNL1        0.0004
     17 C         140.4533  136.4805  155.5400 C.ar    1  UNL1        0.0398
     18 C         141.5263  135.4373  155.6418 C.ar    1  UNL1        0.1724
     19 C         142.7150  135.6679  156.5270 C.ar    1  UNL1        0.1721
     20 C         142.8308  136.9418  157.3106 C.ar    1  UNL1        0.0371
     21 O         141.4106  134.1634  154.8583 O.3     1  UNL1       -0.4684
     22 C         141.3339  134.2081  153.3609 C.3     1  UNL1        0.2526
     23 O         143.7880  134.6247  156.6288 O.3     1  UNL1       -0.4684
     24 C         143.8568  133.7346  157.8343 C.3     1  UNL1        0.2526
     25 C         143.4544  139.1749  163.0295 C.3     1  UNL1        0.0914
     26 N         143.0896  140.0190  164.2145 N.am    1  UNL1       -0.3008
     27 C         142.7603  139.3690  165.5256 C.2     1  UNL1        0.2459
     28 O         142.7957  137.8748  165.6518 O.2     1  UNL1       -0.2701
     29 H         143.0664  140.9998  164.1317 H       1  UNL1        0.1497
     30 C         142.3955  140.2132  166.7106 C.ar    1  UNL1        0.0542
     31 C         141.6641  141.5078  166.5125 C.ar    1  UNL1        0.0046
     32 C         141.2994  142.3520  167.6975 C.ar    1  UNL1        0.0010
     33 C         141.6659  141.9018  169.0806 C.ar    1  UNL1        0.0114
     34 C         142.3973  140.6073  169.2786 C.ar    1  UNL1        0.0578
     35 CL        142.7639  140.1569  170.6617 Cl      1  UNL1       -0.0822
     36 C         142.7621  139.7630  168.0936 C.ar    1  UNL1        0.0159
@<TRIPOS>BOND
     1    12    13    1
     2    13     6    1
     3     6     7   ar
     4     7     8   ar
     5     8     9   ar
     6     1     9    1
     7     1     2    1
     8     2     3    1
     9     3    14    1
    10    14    15    1
    11    15    16   ar
    12    16    17   ar
    13    17    18   ar
    14    18    21    1
    15    21    22    1
    16    18    19   ar
    17    19    23    1
    18    23    24    1
    19    19    20   ar
    20     3     4    1
    21     4     5    1
    22     5    25    1
    23    25    26    1
    24    26    27   am
    25    27    28    2
    26    27    30    1
    27    30    31   ar
    28    31    32   ar
    29    32    33   ar
    30    33    34   ar
    31    34    35    1
    32    34    36   ar
    33     9    10   ar
    34    10    11   ar
    35    11     6   ar
    36     5     1    1
    37    36    30   ar
    38    20    15   ar
    39    26    29    1
@<TRIPOS>MOLECULE
*****
 36 39 0 0 0
SMALL
GASTEIGER

@<TRIPOS>ATOM
      1 C         142.1631  138.0110  158.4972 C.3     1  UNL1        0.0413
      2 C         142.8117  137.1541  157.4508 C.3     1  UNL1        0.0768
      3 N         141.7636  136.7753  156.4468 N.3     1  UNL1       -0.2686
      4 C         140.4672  137.3982  156.8727 C.3     1  UNL1        0.0744
      5 C         140.7142  138.1619  158.1399 C.3     1  UNL1        0.0410
      6 C         144.2057  139.8128  162.0793 C.ar    1  UNL1        0.1387
      7 C         143.6569  138.4187  162.1513 C.ar    1  UNL1        0.0366
      8 C         142.9760  137.8181  160.9573 C.ar    1  UNL1       -0.0011
      9 C         142.8440  138.6116  159.6912 C.ar    1  UNL1       -0.0209
     10 C         143.3929  140.0057  159.6192 C.ar    1  UNL1       -0.0011
     11 C         144.0738  140.6063  160.8132 C.ar    1  UNL1        0.0366
     12 C         145.5766  141.7400  163.1548 C.3     1  UNL1        0.2525
     13 O         144.8866  140.4134  163.2733 O.3     1  UNL1       -0.4714
     14 C         141.9748  135.9233  155.2305 C.3     1  UNL1        0.0993
     15 C         142.2384  134.4543  155.3804 C.ar    1  UNL1       -0.0029
     16 C         141.1682  133.4613  155.0358 C.ar    1  UNL1        0.0004
     17 C         141.4318  131.9923  155.1857 C.ar    1  UNL1        0.0398
     18 C         142.7655  131.5163  155.6802 C.ar    1  UNL1        0.1724
     19 C         143.8357  132.5092  156.0248 C.ar    1  UNL1        0.1721
     20 C         143.5721  133.9783  155.8749 C.ar    1  UNL1        0.0371
     21 O         143.0292  130.0472  155.8301 O.3     1  UNL1       -0.4684
     22 C         143.3942  129.2245  154.6302 C.3     1  UNL1        0.2526
     23 O         145.1694  132.0331  156.5192 O.3     1  UNL1       -0.4684
     24 C         145.4782  132.0596  157.9869 C.3     1  UNL1        0.2526
     25 C         139.6916  138.9398  158.9140 C.3     1  UNL1        0.0914
     26 N         139.4389  138.6181  160.3571 N.am    1  UNL1       -0.3008
     27 C         139.7926  139.6147  161.4208 C.2     1  UNL1        0.2459
     28 O         140.3989  140.9332  161.0415 O.2     1  UNL1       -0.2701
     29 H         139.0410  137.7527  160.6061 H       1  UNL1        0.1497
     30 C         139.5399  139.2929  162.8639 C.ar    1  UNL1        0.0542
     31 C         139.1809  137.8939  163.2687 C.ar    1  UNL1        0.0046
     32 C         138.9282  137.5721  164.7118 C.ar    1  UNL1        0.0010
     33 C         139.0345  138.6492  165.7502 C.ar    1  UNL1        0.0114
     34 C         139.3934  140.0483  165.3455 C.ar    1  UNL1        0.0578
     35 CL        139.4997  141.1256  166.3839 Cl      1  UNL1       -0.0822
     36 C         139.6461  140.3701  163.9023 C.ar    1  UNL1        0.0159
@<TRIPOS>BOND
     1    12    13    1
     2    13     6    1
     3     6     7   ar
     4     7     8   ar
     5     8     9   ar
     6     1     9    1
     7     1     2    1
     8     2     3    1
     9     3    14    1
    10    14    15    1
    11    15    16   ar
    12    16    17   ar
    13    17    18   ar
    14    18    21    1
    15    21    22    1
    16    18    19   ar
    17    19    23    1
    18    23    24    1
    19    19    20   ar
    20     3     4    1
    21     4     5    1
    22     5    25    1
    23    25    26    1
    24    26    27   am
    25    27    28    2
    26    27    30    1
    27    30    31   ar
    28    31    32   ar
    29    32    33   ar
    30    33    34   ar
    31    34    35    1
    32    34    36   ar
    33     9    10   ar
    34    10    11   ar
    35    11     6   ar
    36     5     1    1
    37    36    30   ar
    38    20    15   ar
    39    26    29    1
@<TRIPOS>MOLECULE
*****
 36 39 0 0 0
SMALL
GASTEIGER

@<TRIPOS>ATOM
      1 C         142.3630  139.6032  162.4637 C.3     1  UNL1        0.0413
      2 C         142.2425  139.8111  160.9831 C.3     1  UNL1        0.0768
      3 N         143.5475  140.3567  160.4838 N.3     1  UNL1       -0.2686
      4 C         144.4746  140.4859  161.6559 C.3     1  UNL1        0.0744
      5 C         143.7425  140.0202  162.8795 C.3     1  UNL1        0.0410
      6 C         139.1501  138.0082  165.1809 C.ar    1  UNL1        0.1387
      7 C         139.1043  139.4357  164.7225 C.ar    1  UNL1        0.0366
      8 C         140.1752  139.9673  163.8168 C.ar    1  UNL1       -0.0011
      9 C         141.2920  139.0715  163.3694 C.ar    1  UNL1       -0.0209
     10 C         141.3379  137.6440  163.8278 C.ar    1  UNL1       -0.0011
     11 C         140.2669  137.1124  164.7336 C.ar    1  UNL1        0.0366
     12 C         137.4840  138.3594  167.1432 C.3     1  UNL1        0.2525
     13 O         138.0791  137.4765  166.0867 O.3     1  UNL1       -0.4714
     14 C         143.8689  140.7109  159.0621 C.3     1  UNL1        0.0993
     15 C         143.3592  141.9937  158.4752 C.ar    1  UNL1       -0.0029
     16 C         143.4067  142.2108  156.9917 C.ar    1  UNL1        0.0004
     17 C         142.8969  143.4936  156.4048 C.ar    1  UNL1        0.0398
     18 C         142.3397  144.5593  157.3013 C.ar    1  UNL1        0.1724
     19 C         142.2923  144.3423  158.7847 C.ar    1  UNL1        0.1721
     20 C         142.8020  143.0594  159.3717 C.ar    1  UNL1        0.0371
     21 O         141.8300  145.8422  156.7144 O.3     1  UNL1       -0.4684
     22 C         140.3700  145.9988  156.4078 C.3     1  UNL1        0.2526
     23 O         141.7351  145.4081  159.6812 O.3     1  UNL1       -0.4684
     24 C         140.3047  145.3402  160.1278 C.3     1  UNL1        0.2526
     25 C         144.2934  139.9788  164.2741 C.3     1  UNL1        0.0914
     26 N         143.3615  139.9931  165.4493 N.am    1  UNL1       -0.3008
     27 C         142.8274  141.2957  165.9672 C.2     1  UNL1        0.2459
     28 O         143.2253  142.5839  165.3099 O.2     1  UNL1       -0.2701
     29 H         143.1004  139.1476  165.8808 H       1  UNL1        0.1497
     30 C         141.8955  141.3099  167.1425 C.ar    1  UNL1        0.0542
     31 C         141.2607  140.0345  167.6119 C.ar    1  UNL1        0.0046
     32 C         140.3288  140.0488  168.7872 C.ar    1  UNL1        0.0010
     33 C         140.0316  141.3385  169.4931 C.ar    1  UNL1        0.0114
     34 C         140.6664  142.6139  169.0237 C.ar    1  UNL1        0.0578
     35 CL        140.3692  143.9037  169.7297 Cl      1  UNL1       -0.0822
     36 C         141.5983  142.5996  167.8484 C.ar    1  UNL1        0.0159
@<TRIPOS>BOND
     1    12    13    1
     2    13     6    1
     3     6     7   ar
     4     7     8   ar
     5     8     9   ar
     6     1     9    1
     7     1     2    1
     8     2     3    1
     9     3    14    1
    10    14    15    1
    11    15    16   ar
    12    16    17   ar
    13    17    18   ar
    14    18    21    1
    15    21    22    1
    16    18    19   ar
    17    19    23    1
    18    23    24    1
    19    19    20   ar
    20     3     4    1
    21     4     5    1
    22     5    25    1
    23    25    26    1
    24    26    27   am
    25    27    28    2
    26    27    30    1
    27    30    31   ar
    28    31    32   ar
    29    32    33   ar
    30    33    34   ar
    31    34    35    1
    32    34    36   ar
    33     9    10   ar
    34    10    11   ar
    35    11     6   ar
    36     5     1    1
    37    36    30   ar
    38    20    15   ar
    39    26    29    1
@<TRIPOS>MOLECULE
*****
 36 39 0 0 0
SMALL
GASTEIGER

@<TRIPOS>ATOM
      1 C         142.0980  138.8441  160.2350 C.3     1  UNL1        0.0413
      2 C         143.0189  138.3167  159.1749 C.3     1  UNL1        0.0768
      3 N         142.1802  137.8546  158.0203 N.3     1  UNL1       -0.2686
      4 C         140.7410  138.0965  158.3667 C.3     1  UNL1        0.0744
      5 C         140.6902  138.7080  159.7355 C.3     1  UNL1        0.0410
      6 C         143.3405  140.5374  164.2148 C.ar    1  UNL1        0.1387
      7 C         143.2096  139.0536  164.0390 C.ar    1  UNL1        0.0366
      8 C         142.7954  138.4891  162.7124 C.ar    1  UNL1       -0.0011
      9 C         142.5122  139.4086  161.5616 C.ar    1  UNL1       -0.0209
     10 C         142.6431  140.8924  161.7374 C.ar    1  UNL1       -0.0011
     11 C         143.0573  141.4569  163.0640 C.ar    1  UNL1        0.0366
     12 C         143.5352  142.5555  165.8394 C.3     1  UNL1        0.2525
     13 O         143.7547  141.1019  165.5413 O.3     1  UNL1       -0.4714
     14 C         142.6912  137.2558  156.7434 C.3     1  UNL1        0.0993
     15 C         142.4965  135.7938  156.4701 C.ar    1  UNL1       -0.0029
     16 C         141.5230  135.3505  155.4186 C.ar    1  UNL1        0.0004
     17 C         141.3283  133.8885  155.1454 C.ar    1  UNL1        0.0398
     18 C         142.1073  132.8698  155.9236 C.ar    1  UNL1        0.1724
     19 C         143.0808  133.3131  156.9750 C.ar    1  UNL1        0.1721
     20 C         143.2754  134.7752  157.2484 C.ar    1  UNL1        0.0371
     21 O         141.9126  131.4078  155.6503 O.3     1  UNL1       -0.4684
     22 C         142.8522  130.6850  154.7311 C.3     1  UNL1        0.2526
     23 O         143.8597  132.2944  157.7533 O.3     1  UNL1       -0.4684
     24 C         145.3591  132.3354  157.7517 C.3     1  UNL1        0.2526
     25 C         139.4493  139.1125  160.4749 C.3     1  UNL1        0.0914
     26 N         139.3788  138.9542  161.9648 N.am    1  UNL1       -0.3008
     27 C         139.2584  140.1644  162.8428 C.2     1  UNL1        0.2459
     28 O         139.2084  141.5330  162.2308 O.2     1  UNL1       -0.2701
     29 H         139.4117  138.0559  162.3664 H       1  UNL1        0.1497
     30 C         139.1879  140.0060  164.3327 C.ar    1  UNL1        0.0542
     31 C         139.9833  140.9152  165.2220 C.ar    1  UNL1        0.0046
     32 C         139.9128  140.7568  166.7120 C.ar    1  UNL1        0.0010
     33 C         139.0470  139.6893  167.3127 C.ar    1  UNL1        0.0114
     34 C         138.2517  138.7802  166.4234 C.ar    1  UNL1        0.0578
     35 CL        137.3858  137.7126  167.0240 Cl      1  UNL1       -0.0822
     36 C         138.3221  138.9386  164.9334 C.ar    1  UNL1        0.0159
@<TRIPOS>BOND
     1    12    13    1
     2    13     6    1
     3     6     7   ar
     4     7     8   ar
     5     8     9   ar
     6     1     9    1
     7     1     2    1
     8     2     3    1
     9     3    14    1
    10    14    15    1
    11    15    16   ar
    12    16    17   ar
    13    17    18   ar
    14    18    21    1
    15    21    22    1
    16    18    19   ar
    17    19    23    1
    18    23    24    1
    19    19    20   ar
    20     3     4    1
    21     4     5    1
    22     5    25    1
    23    25    26    1
    24    26    27   am
    25    27    28    2
    26    27    30    1
    27    30    31   ar
    28    31    32   ar
    29    32    33   ar
    30    33    34   ar
    31    34    35    1
    32    34    36   ar
    33     9    10   ar
    34    10    11   ar
    35    11     6   ar
    36     5     1    1
    37    36    30   ar
    38    20    15   ar
    39    26    29    1
@<TRIPOS>MOLECULE
*****
 36 39 0 0 0
SMALL
GASTEIGER

@<TRIPOS>ATOM
      1 C         140.2281  144.1141  161.0078 C.3     1  UNL1        0.0413
      2 C         141.1409  145.0493  160.2715 C.3     1  UNL1        0.0768
      3 N         140.8683  144.9034  158.8037 N.3     1  UNL1       -0.2686
      4 C         139.7869  143.8781  158.6328 C.3     1  UNL1        0.0744
      5 C         139.3912  143.3902  159.9950 C.3     1  UNL1        0.0410
      6 C         140.0341  143.5748  165.4711 C.ar    1  UNL1        0.1387
      7 C         139.1405  144.5730  164.7967 C.ar    1  UNL1        0.0366
      8 C         139.2051  144.7528  163.3090 C.ar    1  UNL1       -0.0011
      9 C         140.1634  143.9343  162.4955 C.ar    1  UNL1       -0.0209
     10 C         141.0571  142.9361  163.1699 C.ar    1  UNL1       -0.0011
     11 C         140.9924  142.7563  164.6577 C.ar    1  UNL1        0.0366
     12 C         140.7257  142.2767  167.6128 C.3     1  UNL1        0.2525
     13 O         139.9695  143.3950  166.9589 O.3     1  UNL1       -0.4714
     14 C         141.5562  145.6516  157.7005 C.3     1  UNL1        0.0993
     15 C         142.2355  144.8998  156.5945 C.ar    1  UNL1       -0.0029
     16 C         142.1559  145.4056  155.1846 C.ar    1  UNL1        0.0004
     17 C         142.8352  144.6537  154.0786 C.ar    1  UNL1        0.0398
     18 C         143.5941  143.3961  154.3826 C.ar    1  UNL1        0.1724
     19 C         143.6738  142.8902  155.7923 C.ar    1  UNL1        0.1721
     20 C         142.9944  143.6421  156.8985 C.ar    1  UNL1        0.0371
     21 O         144.2735  142.6442  153.2765 O.3     1  UNL1       -0.4684
     22 C         145.7284  142.8767  152.9949 C.3     1  UNL1        0.2526
     23 O         144.4326  141.6326  156.0963 O.3     1  UNL1       -0.4684
     24 C         145.7186  141.6999  156.8656 C.3     1  UNL1        0.2526
     25 C         138.3428  142.3595  160.2922 C.3     1  UNL1        0.0914
     26 N         138.6576  141.2104  161.2034 N.am    1  UNL1       -0.3008
     27 C         137.9647  141.0923  162.5285 C.2     1  UNL1        0.2459
     28 O         136.9569  142.1232  162.9424 O.2     1  UNL1       -0.2701
     29 H         139.3191  140.5338  160.9318 H       1  UNL1        0.1497
     30 C         138.2796  139.9432  163.4397 C.ar    1  UNL1        0.0542
     31 C         138.6872  138.6193  162.8641 C.ar    1  UNL1        0.0046
     32 C         139.0021  137.4702  163.7753 C.ar    1  UNL1        0.0010
     33 C         138.9095  137.6448  165.2622 C.ar    1  UNL1        0.0114
     34 C         138.5020  138.9687  165.8378 C.ar    1  UNL1        0.0578
     35 CL        138.4094  139.1434  167.3248 Cl      1  UNL1       -0.0822
     36 C         138.1871  140.1178  164.9266 C.ar    1  UNL1        0.0159
@<TRIPOS>BOND
     1    12    13    1
     2    13     6    1
     3     6     7   ar
     4     7     8   ar
     5     8     9   ar
     6     1     9    1
     7     1     2    1
     8     2     3    1
     9     3    14    1
    10    14    15    1
    11    15    16   ar
    12    16    17   ar
    13    17    18   ar
    14    18    21    1
    15    21    22    1
    16    18    19   ar
    17    19    23    1
    18    23    24    1
    19    19    20   ar
    20     3     4    1
    21     4     5    1
    22     5    25    1
    23    25    26    1
    24    26    27   am
    25    27    28    2
    26    27    30    1
    27    30    31   ar
    28    31    32   ar
    29    32    33   ar
    30    33    34   ar
    31    34    35    1
    32    34    36   ar
    33     9    10   ar
    34    10    11   ar
    35    11     6   ar
    36     5     1    1
    37    36    30   ar
    38    20    15   ar
    39    26    29    1
@<TRIPOS>MOLECULE
*****
 36 39 0 0 0
SMALL
GASTEIGER

@<TRIPOS>ATOM
      1 C         142.0122  138.1850  160.8115 C.3     1  UNL1        0.0413
      2 C         142.9452  137.5903  159.7987 C.3     1  UNL1        0.0768
      3 N         142.2932  137.6921  158.4517 N.3     1  UNL1       -0.2686
      4 C         140.9572  138.3498  158.6319 C.3     1  UNL1        0.0744
      5 C         140.7835  138.6544  160.0904 C.3     1  UNL1        0.0410
      6 C         142.7666  138.5047  165.2363 C.ar    1  UNL1        0.1387
      7 C         141.6734  137.6144  164.7242 C.ar    1  UNL1        0.0366
      8 C         141.4219  137.5079  163.2493 C.ar    1  UNL1       -0.0011
      9 C         142.2637  138.2915  162.2864 C.ar    1  UNL1       -0.0209
     10 C         143.3569  139.1818  162.7984 C.ar    1  UNL1       -0.0011
     11 C         143.6084  139.2884  164.2734 C.ar    1  UNL1        0.0366
     12 C         142.1859  139.5362  167.5490 C.3     1  UNL1        0.2525
     13 O         143.0181  138.6113  166.7112 O.3     1  UNL1       -0.4714
     14 C         142.8751  137.2193  157.1525 C.3     1  UNL1        0.0993
     15 C         142.7177  135.7865  156.7376 C.ar    1  UNL1       -0.0029
     16 C         143.3147  134.6936  157.5738 C.ar    1  UNL1        0.0004
     17 C         143.1574  133.2608  157.1589 C.ar    1  UNL1        0.0398
     18 C         142.4030  132.9208  155.9077 C.ar    1  UNL1        0.1724
     19 C         141.8060  134.0135  155.0715 C.ar    1  UNL1        0.1721
     20 C         141.9633  135.4465  155.4865 C.ar    1  UNL1        0.0371
     21 O         142.2456  131.4879  155.4928 O.3     1  UNL1       -0.4684
     22 C         143.2916  130.8353  154.6384 C.3     1  UNL1        0.2526
     23 O         141.0516  133.6736  153.8204 O.3     1  UNL1       -0.4684
     24 C         141.5992  134.0732  152.4824 C.3     1  UNL1        0.2526
     25 C         139.5906  139.3128  160.7176 C.3     1  UNL1        0.0914
     26 N         139.7798  140.3290  161.8045 N.am    1  UNL1       -0.3008
     27 C         138.6056  141.1131  162.3109 C.2     1  UNL1        0.2459
     28 O         137.2421  140.8811  161.7303 O.2     1  UNL1       -0.2701
     29 H         140.6747  140.4813  162.1855 H       1  UNL1        0.1497
     30 C         138.7949  142.1293  163.3979 C.ar    1  UNL1        0.0542
     31 C         137.8684  143.3049  163.4951 C.ar    1  UNL1        0.0046
     32 C         138.0577  144.3211  164.5821 C.ar    1  UNL1        0.0010
     33 C         139.1735  144.1618  165.5718 C.ar    1  UNL1        0.0114
     34 C         140.1000  142.9861  165.4746 C.ar    1  UNL1        0.0578
     35 CL        141.2159  142.8267  166.4643 Cl      1  UNL1       -0.0822
     36 C         139.9107  141.9699  164.3876 C.ar    1  UNL1        0.0159
@<TRIPOS>BOND
     1    12    13    1
     2    13     6    1
     3     6     7   ar
     4     7     8   ar
     5     8     9   ar
     6     1     9    1
     7     1     2    1
     8     2     3    1
     9     3    14    1
    10    14    15    1
    11    15    16   ar
    12    16    17   ar
    13    17    18   ar
    14    18    21    1
    15    21    22    1
    16    18    19   ar
    17    19    23    1
    18    23    24    1
    19    19    20   ar
    20     3     4    1
    21     4     5    1
    22     5    25    1
    23    25    26    1
    24    26    27   am
    25    27    28    2
    26    27    30    1
    27    30    31   ar
    28    31    32   ar
    29    32    33   ar
    30    33    34   ar
    31    34    35    1
    32    34    36   ar
    33     9    10   ar
    34    10    11   ar
    35    11     6   ar
    36     5     1    1
    37    36    30   ar
    38    20    15   ar
    39    26    29    1
@<TRIPOS>MOLECULE
*****
 36 39 0 0 0
SMALL
GASTEIGER

@<TRIPOS>ATOM
      1 C         141.1452  138.9350  160.1580 C.3     1  UNL1        0.0413
      2 C         141.3530  138.7599  158.6829 C.3     1  UNL1        0.0768
      3 N         142.4222  137.7266  158.4848 N.3     1  UNL1       -0.2686
      4 C         142.8752  137.2632  159.8376 C.3     1  UNL1        0.0744
      5 C         142.0860  138.0100  160.8717 C.3     1  UNL1        0.0410
      6 C         138.2141  141.7425  162.1014 C.ar    1  UNL1        0.1387
      7 C         139.5378  142.2566  161.6185 C.ar    1  UNL1        0.0366
      8 C         140.5149  141.3208  160.9707 C.ar    1  UNL1       -0.0011
      9 C         140.1682  139.8708  160.8058 C.ar    1  UNL1       -0.0209
     10 C         138.8444  139.3567  161.2887 C.ar    1  UNL1       -0.0011
     11 C         137.8674  140.2925  161.9365 C.ar    1  UNL1        0.0366
     12 C         137.6823  144.0419  163.1876 C.3     1  UNL1        0.2525
     13 O         137.2370  142.6783  162.7492 O.3     1  UNL1       -0.4714
     14 C         142.9464  137.2420  157.1656 C.3     1  UNL1        0.0993
     15 C         142.6556  135.8423  156.7115 C.ar    1  UNL1       -0.0029
     16 C         141.5651  135.5890  155.7132 C.ar    1  UNL1        0.0004
     17 C         141.2742  134.1892  155.2591 C.ar    1  UNL1        0.0398
     18 C         142.0739  133.0428  155.8034 C.ar    1  UNL1        0.1724
     19 C         143.1643  133.2960  156.8017 C.ar    1  UNL1        0.1721
     20 C         143.4552  134.6959  157.2558 C.ar    1  UNL1        0.0371
     21 O         141.7831  131.6430  155.3493 O.3     1  UNL1       -0.4684
     22 C         140.9897  131.4101  154.0978 C.3     1  UNL1        0.2526
     23 O         143.9640  132.1496  157.3460 O.3     1  UNL1       -0.4684
     24 C         145.2454  132.4109  158.0806 C.3     1  UNL1        0.2526
     25 C         142.2149  137.8584  162.3584 C.3     1  UNL1        0.0914
     26 N         142.1384  139.0658  163.2449 N.am    1  UNL1       -0.3008
     27 C         141.0601  139.1674  164.2827 C.2     1  UNL1        0.2459
     28 O         140.0582  138.0613  164.4340 O.2     1  UNL1       -0.2701
     29 H         142.7959  139.7918  163.1456 H       1  UNL1        0.1497
     30 C         140.9836  140.3749  165.1692 C.ar    1  UNL1        0.0542
     31 C         139.7595  141.2416  165.1521 C.ar    1  UNL1        0.0046
     32 C         139.6830  142.4492  166.0386 C.ar    1  UNL1        0.0010
     33 C         140.8307  142.7901  166.9422 C.ar    1  UNL1        0.0114
     34 C         142.0548  141.9234  166.9593 C.ar    1  UNL1        0.0578
     35 CL        143.2026  142.2644  167.8630 Cl      1  UNL1       -0.0822
     36 C         142.1313  140.7159  166.0728 C.ar    1  UNL1        0.0159
@<TRIPOS>BOND
     1    12    13    1
     2    13     6    1
     3     6     7   ar
     4     7     8   ar
     5     8     9   ar
     6     1     9    1
     7     1     2    1
     8     2     3    1
     9     3    14    1
    10    14    15    1
    11    15    16   ar
    12    16    17   ar
    13    17    18   ar
    14    18    21    1
    15    21    22    1
    16    18    19   ar
    17    19    23    1
    18    23    24    1
    19    19    20   ar
    20     3     4    1
    21     4     5    1
    22     5    25    1
    23    25    26    1
    24    26    27   am
    25    27    28    2
    26    27    30    1
    27    30    31   ar
    28    31    32   ar
    29    32    33   ar
    30    33    34   ar
    31    34    35    1
    32    34    36   ar
    33     9    10   ar
    34    10    11   ar
    35    11     6   ar
    36     5     1    1
    37    36    30   ar
    38    20    15   ar
    39    26    29    1
@<TRIPOS>MOLECULE
*****
 36 39 0 0 0
SMALL
GASTEIGER

@<TRIPOS>ATOM
      1 C         141.3110  139.6593  162.5524 C.3     1  UNL1        0.0413
      2 C         141.0186  139.6654  161.0812 C.3     1  UNL1        0.0768
      3 N         142.2998  139.9509  160.3552 N.3     1  UNL1       -0.2686
      4 C         143.3840  140.1214  161.3776 C.3     1  UNL1        0.0744
      5 C         142.7729  139.9411  162.7356 C.3     1  UNL1        0.0410
      6 C         138.3267  138.9246  165.8394 C.ar    1  UNL1        0.1387
      7 C         138.4154  140.2763  165.1952 C.ar    1  UNL1        0.0366
      8 C         139.4101  140.5212  164.0996 C.ar    1  UNL1       -0.0011
      9 C         140.3162  139.4144  163.6481 C.ar    1  UNL1       -0.0209
     10 C         140.2275  138.0627  164.2922 C.ar    1  UNL1       -0.0011
     11 C         139.2327  137.8178  165.3878 C.ar    1  UNL1        0.0366
     12 C         137.0358  137.2781  167.3797 C.3     1  UNL1        0.2525
     13 O         137.3319  138.6797  166.9350 O.3     1  UNL1       -0.4714
     14 C         142.4673  140.0489  158.8678 C.3     1  UNL1        0.0993
     15 C         141.9918  138.9337  157.9845 C.ar    1  UNL1       -0.0029
     16 C         142.8979  137.7766  157.6840 C.ar    1  UNL1        0.0004
     17 C         142.4225  136.6614  156.8007 C.ar    1  UNL1        0.0398
     18 C         141.0410  136.7032  156.2179 C.ar    1  UNL1        0.1724
     19 C         140.1349  137.8602  156.5183 C.ar    1  UNL1        0.1721
     20 C         140.6103  138.9755  157.4017 C.ar    1  UNL1        0.0371
     21 O         140.5655  135.5880  155.3345 O.3     1  UNL1       -0.4684
     22 C         140.6758  135.7129  153.8438 C.3     1  UNL1        0.2526
     23 O         138.7534  137.9020  155.9355 O.3     1  UNL1       -0.4684
     24 C         138.3578  139.0253  155.0235 C.3     1  UNL1        0.2526
     25 C         143.4966  140.0275  164.0466 C.3     1  UNL1        0.0914
     26 N         142.8673  140.7429  165.2051 N.am    1  UNL1       -0.3008
     27 C         142.6940  140.0377  166.5176 C.2     1  UNL1        0.2459
     28 O         143.1502  138.6171  166.6717 O.2     1  UNL1       -0.2701
     29 H         142.5679  141.6753  165.1040 H       1  UNL1        0.1497
     30 C         142.0647  140.7532  167.6760 C.ar    1  UNL1        0.0542
     31 C         142.7557  141.9323  168.2944 C.ar    1  UNL1        0.0046
     32 C         142.1263  142.6477  169.4528 C.ar    1  UNL1        0.0010
     33 C         140.8060  142.1842  169.9930 C.ar    1  UNL1        0.0114
     34 C         140.1150  141.0051  169.3747 C.ar    1  UNL1        0.0578
     35 CL        138.7946  140.5415  169.9148 Cl      1  UNL1       -0.0822
     36 C         140.7444  140.2896  168.2162 C.ar    1  UNL1        0.0159
@<TRIPOS>BOND
     1    12    13    1
     2    13     6    1
     3     6     7   ar
     4     7     8   ar
     5     8     9   ar
     6     1     9    1
     7     1     2    1
     8     2     3    1
     9     3    14    1
    10    14    15    1
    11    15    16   ar
    12    16    17   ar
    13    17    18   ar
    14    18    21    1
    15    21    22    1
    16    18    19   ar
    17    19    23    1
    18    23    24    1
    19    19    20   ar
    20     3     4    1
    21     4     5    1
    22     5    25    1
    23    25    26    1
    24    26    27   am
    25    27    28    2
    26    27    30    1
    27    30    31   ar
    28    31    32   ar
    29    32    33   ar
    30    33    34   ar
    31    34    35    1
    32    34    36   ar
    33     9    10   ar
    34    10    11   ar
    35    11     6   ar
    36     5     1    1
    37    36    30   ar
    38    20    15   ar
    39    26    29    1
