@<TRIPOS>MOLECULE
*****
 31 34 0 0 0
SMALL
GASTEIGER

@<TRIPOS>ATOM
      1 C         138.1231  140.3683  162.6158 C.3     1  UNL1        0.1166
      2 N         136.8916  141.1549  162.9539 N.3     1  UNL1       -0.3162
      3 C         139.3767  139.5648  162.7978 C.3     1  UNL1        0.0739
      4 C         140.1392  139.0828  161.5995 C.3     1  UNL1        0.2039
      5 N         139.6483  139.4042  160.2190 N.pl3   1  UNL1       -0.1931
      6 C         138.3948  140.2076  160.0369 C.3     1  UNL1        0.2039
      7 C         137.6322  140.6897  161.2353 C.3     1  UNL1        0.0739
      8 H         136.7928  141.2130  163.9674 H       1  UNL1        0.1192
      9 H         136.0733  140.6920  162.5585 H       1  UNL1        0.1192
     10 C         140.4109  138.9222  159.0206 C.2     1  UNL1        0.3205
     11 N         139.7812  137.9427  158.0751 N.2     1  UNL1        0.0097
     12 C         140.5437  137.4607  156.8768 C.2     1  UNL1        0.4717
     13 N         141.9361  137.9581  156.6239 N.2     1  UNL1        0.0158
     14 C         142.5659  138.9375  157.5694 C.2     1  UNL1        0.3714
     15 N         143.9119  139.5995  157.5794 N.2     1  UNL1       -0.0339
     16 C         143.9811  140.4906  158.7840 C.2     1  UNL1        0.2323
     17 C         142.6780  140.3794  159.5185 C.2     1  UNL1        0.0486
     18 C         141.8033  139.4196  158.7678 C.3     1  UNL1        0.2428
     19 N         138.5059  139.0302  164.8096 N.am    1  UNL1       -0.3012
     20 C         138.1864  140.3200  164.1137 C.2     1  UNL1        0.2352
     21 O         137.9302  141.5615  164.9156 O.2     1  UNL1       -0.2737
     22 H         138.6741  138.2154  164.2832 H       1  UNL1        0.1497
     23 C         137.4703  138.3184  167.0836 C.3     1  UNL1        0.0262
     24 C         138.5692  138.9819  166.3075 C.3     1  UNL1        0.0942
     25 C         139.7314  139.5970  167.0293 C.ar    1  UNL1       -0.0045
     26 C         139.5493  140.1457  168.4134 C.ar    1  UNL1       -0.0018
     27 C         140.7115  140.7608  169.1352 C.ar    1  UNL1        0.0111
     28 C         142.0557  140.8273  168.4728 C.ar    1  UNL1        0.0577
     29 CL        143.2178  141.4425  169.1947 Cl      1  UNL1       -0.0822
     30 C         142.2377  140.2787  167.0887 C.ar    1  UNL1        0.0111
     31 C         141.0756  139.6635  166.3669 C.ar    1  UNL1       -0.0018
@<TRIPOS>BOND
     1    23    24    1
     2    24    19    1
     3    19    20   am
     4    20    21    2
     5    20     1    1
     6     1     2    1
     7     1     3    1
     8     3     4    1
     9     4     5    1
    10     5    10    1
    11    10    11    2
    12    11    12    1
    13    12    13    2
    14    13    14    1
    15    14    15    2
    16    15    16    1
    17    16    17    2
    18    17    18    1
    19     5     6    1
    20     6     7    1
    21    24    25    1
    22    25    26   ar
    23    26    27   ar
    24    27    28   ar
    25    28    29    1
    26    28    30   ar
    27    30    31   ar
    28     7     1    1
    29    31    25   ar
    30    18    10    1
    31    18    14    1
    32    19    22    1
    33     2     8    1
    34     2     9    1
@<TRIPOS>MOLECULE
*****
 31 34 0 0 0
SMALL
GASTEIGER

@<TRIPOS>ATOM
      1 C         143.3986  139.9689  162.5700 C.3     1  UNL1        0.1166
      2 N         144.6089  139.0837  162.6084 N.3     1  UNL1       -0.3162
      3 C         142.0893  140.5845  162.9662 C.3     1  UNL1        0.0739
      4 C         141.4854  141.6691  162.1245 C.3     1  UNL1        0.2039
      5 N         142.1906  142.1384  160.8865 N.pl3   1  UNL1       -0.1931
      6 C         143.4999  141.5229  160.4903 C.3     1  UNL1        0.2039
      7 C         144.1038  140.4381  161.3321 C.3     1  UNL1        0.0739
      8 H         144.5610  138.4775  163.4273 H       1  UNL1        0.1192
      9 H         145.4495  139.6591  162.6600 H       1  UNL1        0.1192
     10 C         141.5866  143.2231  160.0448 C.2     1  UNL1        0.3205
     11 N         141.7412  143.1889  158.5532 N.2     1  UNL1        0.0097
     12 C         141.1372  144.2736  157.7115 C.2     1  UNL1        0.4717
     13 N         140.3785  145.3926  158.3614 N.2     1  UNL1        0.0158
     14 C         140.2239  145.4269  159.8530 C.2     1  UNL1        0.3714
     15 N         139.5358  146.3953  160.7687 N.2     1  UNL1       -0.0339
     16 C         139.7146  145.9091  162.1764 C.2     1  UNL1        0.2323
     17 C         140.5132  144.6402  162.1307 C.2     1  UNL1        0.0486
     18 C         140.8280  144.3421  160.6947 C.3     1  UNL1        0.2428
     19 N         143.6173  139.6898  165.1437 N.am    1  UNL1       -0.3012
     20 C         143.1137  139.1923  163.8213 C.2     1  UNL1        0.2352
     21 O         142.3252  137.9183  163.7501 O.2     1  UNL1       -0.2737
     22 H         144.1348  140.5260  165.1904 H       1  UNL1        0.1497
     23 C         144.1751  137.7235  166.7476 C.3     1  UNL1        0.0262
     24 C         143.3323  138.9132  166.3951 C.3     1  UNL1        0.0942
     25 C         142.2047  139.3264  167.2938 C.ar    1  UNL1       -0.0045
     26 C         140.8689  139.6769  166.7083 C.ar    1  UNL1       -0.0018
     27 C         139.7412  140.0901  167.6070 C.ar    1  UNL1        0.0111
     28 C         139.9494  140.1528  169.0911 C.ar    1  UNL1        0.0577
     29 CL        138.8217  140.5660  169.9898 Cl      1  UNL1       -0.0822
     30 C         141.2852  139.8023  169.6766 C.ar    1  UNL1        0.0111
     31 C         142.4129  139.3891  168.7779 C.ar    1  UNL1       -0.0018
@<TRIPOS>BOND
     1    23    24    1
     2    24    19    1
     3    19    20   am
     4    20    21    2
     5    20     1    1
     6     1     2    1
     7     1     3    1
     8     3     4    1
     9     4     5    1
    10     5    10    1
    11    10    11    2
    12    11    12    1
    13    12    13    2
    14    13    14    1
    15    14    15    2
    16    15    16    1
    17    16    17    2
    18    17    18    1
    19     5     6    1
    20     6     7    1
    21    24    25    1
    22    25    26   ar
    23    26    27   ar
    24    27    28   ar
    25    28    29    1
    26    28    30   ar
    27    30    31   ar
    28     7     1    1
    29    31    25   ar
    30    18    10    1
    31    18    14    1
    32    19    22    1
    33     2     8    1
    34     2     9    1
@<TRIPOS>MOLECULE
*****
 31 34 0 0 0
SMALL
GASTEIGER

@<TRIPOS>ATOM
      1 C         139.0618  139.0589  165.4712 C.3     1  UNL1        0.1166
      2 N         138.2486  138.2979  166.4759 N.3     1  UNL1       -0.3162
      3 C         139.9422  140.1226  164.8850 C.3     1  UNL1        0.0739
      4 C         140.3468  140.0504  163.4425 C.3     1  UNL1        0.2039
      5 N         139.8711  138.9145  162.5860 N.pl3   1  UNL1       -0.1931
      6 C         138.9907  137.8509  163.1721 C.3     1  UNL1        0.2039
      7 C         138.5861  137.9231  164.6147 C.3     1  UNL1        0.0739
      8 H         138.2820  138.7788  167.3748 H       1  UNL1        0.1192
      9 H         138.6293  137.3573  166.5791 H       1  UNL1        0.1192
     10 C         140.2758  138.8424  161.1434 C.2     1  UNL1        0.3205
     11 N         139.2276  138.7565  160.0738 N.2     1  UNL1        0.0097
     12 C         139.6323  138.6844  158.6313 C.2     1  UNL1        0.4717
     13 N         141.0851  138.6981  158.2582 N.2     1  UNL1        0.0158
     14 C         142.1333  138.7840  159.3278 C.2     1  UNL1        0.3714
     15 N         143.6316  138.8165  159.2645 N.2     1  UNL1       -0.0339
     16 C         144.1529  138.9086  160.6679 C.2     1  UNL1        0.2323
     17 C         142.9768  138.9332  161.5986 C.2     1  UNL1        0.0486
     18 C         141.7286  138.8562  160.7704 C.3     1  UNL1        0.2428
     19 N         139.1629  139.3392  168.0520 N.am    1  UNL1       -0.3012
     20 C         139.2551  139.9305  166.6766 C.2     1  UNL1        0.2352
     21 O         139.5406  141.3932  166.5065 O.2     1  UNL1       -0.2737
     22 H         138.9755  138.3792  168.1637 H       1  UNL1        0.1497
     23 C         138.2341  140.3982  170.2352 C.3     1  UNL1        0.0262
     24 C         139.3562  140.2108  169.2575 C.3     1  UNL1        0.0942
     25 C         140.6715  140.8949  169.4853 C.ar    1  UNL1       -0.0045
     26 C         141.9337  140.0877  169.5595 C.ar    1  UNL1       -0.0018
     27 C         143.2491  140.7718  169.7872 C.ar    1  UNL1        0.0111
     28 C         143.3022  142.2630  169.9408 C.ar    1  UNL1        0.0577
     29 CL        144.6177  142.9470  170.1685 Cl      1  UNL1       -0.0822
     30 C         142.0401  143.0701  169.8666 C.ar    1  UNL1        0.0111
     31 C         140.7247  142.3860  169.6388 C.ar    1  UNL1       -0.0018
@<TRIPOS>BOND
     1    23    24    1
     2    24    19    1
     3    19    20   am
     4    20    21    2
     5    20     1    1
     6     1     2    1
     7     1     3    1
     8     3     4    1
     9     4     5    1
    10     5    10    1
    11    10    11    2
    12    11    12    1
    13    12    13    2
    14    13    14    1
    15    14    15    2
    16    15    16    1
    17    16    17    2
    18    17    18    1
    19     5     6    1
    20     6     7    1
    21    24    25    1
    22    25    26   ar
    23    26    27   ar
    24    27    28   ar
    25    28    29    1
    26    28    30   ar
    27    30    31   ar
    28     7     1    1
    29    31    25   ar
    30    18    10    1
    31    18    14    1
    32    19    22    1
    33     2     8    1
    34     2     9    1
@<TRIPOS>MOLECULE
*****
 31 34 0 0 0
SMALL
GASTEIGER

@<TRIPOS>ATOM
      1 C         141.6844  144.8336  162.6411 C.3     1  UNL1        0.1166
      2 N         141.3814  145.4583  163.9706 N.3     1  UNL1       -0.3162
      3 C         142.3449  143.9713  161.6064 C.3     1  UNL1        0.0739
      4 C         141.8706  144.0100  160.1840 C.3     1  UNL1        0.2039
      5 N         140.7356  144.9109  159.7960 N.pl3   1  UNL1       -0.1931
      6 C         140.0751  145.7731  160.8305 C.3     1  UNL1        0.2039
      7 C         140.5495  145.7344  162.2531 C.3     1  UNL1        0.0739
      8 H         142.0173  145.0840  164.6749 H       1  UNL1        0.1192
      9 H         140.4192  145.2465  164.2345 H       1  UNL1        0.1192
     10 C         140.2613  144.9495  158.3735 C.2     1  UNL1        0.3205
     11 N         140.5901  146.1274  157.5050 N.2     1  UNL1        0.0097
     12 C         140.1159  146.1661  156.0826 C.2     1  UNL1        0.4717
     13 N         139.3127  145.0267  155.5285 N.2     1  UNL1        0.0158
     14 C         138.9838  143.8488  156.3970 C.2     1  UNL1        0.3714
     15 N         138.2157  142.5884  156.1301 N.2     1  UNL1       -0.0339
     16 C         138.2153  141.7708  157.3876 C.2     1  UNL1        0.2323
     17 C         138.9832  142.5259  158.4318 C.2     1  UNL1        0.0486
     18 C         139.4582  143.8102  157.8195 C.3     1  UNL1        0.2428
     19 N         142.7893  142.6517  163.5176 N.am    1  UNL1       -0.3012
     20 C         142.7140  144.1496  163.4907 C.2     1  UNL1        0.2352
     21 O         143.6683  144.9634  164.3135 O.2     1  UNL1       -0.2737
     22 H         142.1630  142.1176  162.9776 H       1  UNL1        0.1497
     23 C         145.2528  141.9351  163.9275 C.3     1  UNL1        0.0262
     24 C         143.8190  141.9677  164.3673 C.3     1  UNL1        0.0942
     25 C         143.4149  141.3163  165.6566 C.ar    1  UNL1       -0.0045
     26 C         143.2846  139.8239  165.7343 C.ar    1  UNL1       -0.0018
     27 C         142.8805  139.1725  167.0236 C.ar    1  UNL1        0.0111
     28 C         142.6067  140.0134  168.2352 C.ar    1  UNL1        0.0577
     29 CL        142.2026  139.3620  169.5245 Cl      1  UNL1       -0.0822
     30 C         142.7370  141.5057  168.1575 C.ar    1  UNL1        0.0111
     31 C         143.1411  142.1572  166.8681 C.ar    1  UNL1       -0.0018
@<TRIPOS>BOND
     1    23    24    1
     2    24    19    1
     3    19    20   am
     4    20    21    2
     5    20     1    1
     6     1     2    1
     7     1     3    1
     8     3     4    1
     9     4     5    1
    10     5    10    1
    11    10    11    2
    12    11    12    1
    13    12    13    2
    14    13    14    1
    15    14    15    2
    16    15    16    1
    17    16    17    2
    18    17    18    1
    19     5     6    1
    20     6     7    1
    21    24    25    1
    22    25    26   ar
    23    26    27   ar
    24    27    28   ar
    25    28    29    1
    26    28    30   ar
    27    30    31   ar
    28     7     1    1
    29    31    25   ar
    30    18    10    1
    31    18    14    1
    32    19    22    1
    33     2     8    1
    34     2     9    1
@<TRIPOS>MOLECULE
*****
 31 34 0 0 0
SMALL
GASTEIGER

@<TRIPOS>ATOM
      1 C         140.9331  138.2002  161.8979 C.3     1  UNL1        0.1166
      2 N         139.6194  138.2592  162.6194 N.3     1  UNL1       -0.3162
      3 C         142.4112  138.0881  161.6677 C.3     1  UNL1        0.0739
      4 C         142.9598  138.1491  160.2731 C.3     1  UNL1        0.2039
      5 N         142.0304  138.3222  159.1084 N.pl3   1  UNL1       -0.1931
      6 C         140.5524  138.4343  159.3384 C.3     1  UNL1        0.2039
      7 C         140.0038  138.3733  160.7332 C.3     1  UNL1        0.0739
      8 H         139.7781  138.1666  163.6227 H       1  UNL1        0.1192
      9 H         139.0206  137.4985  162.2982 H       1  UNL1        0.1192
     10 C         142.5791  138.3833  157.7137 C.2     1  UNL1        0.3205
     11 N         142.6983  139.7035  157.0117 N.2     1  UNL1        0.0097
     12 C         143.2470  139.7645  155.6171 C.2     1  UNL1        0.4717
     13 N         143.6765  138.5053  154.9242 N.2     1  UNL1        0.0158
     14 C         143.5574  137.1851  155.6262 C.2     1  UNL1        0.3714
     15 N         143.8974  135.7876  155.2002 N.2     1  UNL1       -0.0339
     16 C         143.5588  134.8629  156.3317 C.2     1  UNL1        0.2323
     17 C         143.0095  135.6888  157.4569 C.2     1  UNL1        0.0486
     18 C         143.0087  137.1241  157.0209 C.3     1  UNL1        0.2428
     19 N         142.0717  139.1975  164.0094 N.am    1  UNL1       -0.3012
     20 C         141.4062  138.0476  163.3130 C.2     1  UNL1        0.2352
     21 O         141.2140  136.7452  164.0319 O.2     1  UNL1       -0.2737
     22 H         142.1978  140.0524  163.5376 H       1  UNL1        0.1497
     23 C         143.9253  138.5280  165.7022 C.3     1  UNL1        0.0262
     24 C         142.5449  139.0450  165.4246 C.3     1  UNL1        0.0942
     25 C         141.6376  139.4095  166.5622 C.ar    1  UNL1       -0.0045
     26 C         140.1574  139.5070  166.3394 C.ar    1  UNL1       -0.0018
     27 C         139.2502  139.8715  167.4769 C.ar    1  UNL1        0.0111
     28 C         139.8232  140.1386  168.8372 C.ar    1  UNL1        0.0577
     29 CL        138.9158  140.5031  169.9748 Cl      1  UNL1       -0.0822
     30 C         141.3033  140.0412  169.0600 C.ar    1  UNL1        0.0111
     31 C         142.2106  139.6766  167.9225 C.ar    1  UNL1       -0.0018
@<TRIPOS>BOND
     1    23    24    1
     2    24    19    1
     3    19    20   am
     4    20    21    2
     5    20     1    1
     6     1     2    1
     7     1     3    1
     8     3     4    1
     9     4     5    1
    10     5    10    1
    11    10    11    2
    12    11    12    1
    13    12    13    2
    14    13    14    1
    15    14    15    2
    16    15    16    1
    17    16    17    2
    18    17    18    1
    19     5     6    1
    20     6     7    1
    21    24    25    1
    22    25    26   ar
    23    26    27   ar
    24    27    28   ar
    25    28    29    1
    26    28    30   ar
    27    30    31   ar
    28     7     1    1
    29    31    25   ar
    30    18    10    1
    31    18    14    1
    32    19    22    1
    33     2     8    1
    34     2     9    1
@<TRIPOS>MOLECULE
*****
 31 34 0 0 0
SMALL
GASTEIGER

@<TRIPOS>ATOM
      1 C         139.4286  138.4630  162.0237 C.3     1  UNL1        0.1166
      2 N         137.9677  138.6058  162.3321 N.3     1  UNL1       -0.3162
      3 C         140.9007  138.2646  162.2331 C.3     1  UNL1        0.0739
      4 C         141.8335  138.2757  161.0587 C.3     1  UNL1        0.2039
      5 N         141.2944  138.4853  159.6746 N.pl3   1  UNL1       -0.1931
      6 C         139.8224  138.6837  159.4651 C.3     1  UNL1        0.2039
      7 C         138.8896  138.6725  160.6397 C.3     1  UNL1        0.0739
      8 H         137.8223  138.5180  163.3378 H       1  UNL1        0.1192
      9 H         137.4450  137.8759  161.8479 H       1  UNL1        0.1192
     10 C         142.2273  138.4964  158.5000 C.2     1  UNL1        0.3205
     11 N         142.2927  137.3113  157.5828 N.2     1  UNL1        0.0097
     12 C         143.2255  137.3224  156.4084 C.2     1  UNL1        0.4717
     13 N         144.0932  138.5187  156.1510 N.2     1  UNL1        0.0158
     14 C         144.0279  139.7038  157.0681 C.2     1  UNL1        0.3714
     15 N         144.7568  141.0148  157.0675 N.2     1  UNL1       -0.0339
     16 C         144.2743  141.8139  158.2416 C.2     1  UNL1        0.2323
     17 C         143.2472  140.9968  158.9679 C.2     1  UNL1        0.0486
     18 C         143.0950  139.6926  158.2427 C.3     1  UNL1        0.2428
     19 N         138.5155  139.0901  164.3737 N.am    1  UNL1       -0.3012
     20 C         139.4604  138.3030  163.5148 C.2     1  UNL1        0.2352
     21 O         140.4370  137.3561  164.1470 O.2     1  UNL1       -0.2737
     22 H         137.8745  139.7115  163.9588 H       1  UNL1        0.1497
     23 C         137.9406  137.7151  166.5019 C.3     1  UNL1        0.0262
     24 C         138.5472  138.9302  165.8649 C.3     1  UNL1        0.0942
     25 C         139.1854  139.9853  166.7189 C.ar    1  UNL1       -0.0045
     26 C         139.1930  139.8386  168.2117 C.ar    1  UNL1       -0.0018
     27 C         139.8313  140.8937  169.0657 C.ar    1  UNL1        0.0111
     28 C         140.4618  142.0955  168.4269 C.ar    1  UNL1        0.0577
     29 CL        141.1001  143.1507  169.2810 Cl      1  UNL1       -0.0822
     30 C         140.4542  142.2422  166.9342 C.ar    1  UNL1        0.0111
     31 C         139.8160  141.1871  166.0801 C.ar    1  UNL1       -0.0018
@<TRIPOS>BOND
     1    23    24    1
     2    24    19    1
     3    19    20   am
     4    20    21    2
     5    20     1    1
     6     1     2    1
     7     1     3    1
     8     3     4    1
     9     4     5    1
    10     5    10    1
    11    10    11    2
    12    11    12    1
    13    12    13    2
    14    13    14    1
    15    14    15    2
    16    15    16    1
    17    16    17    2
    18    17    18    1
    19     5     6    1
    20     6     7    1
    21    24    25    1
    22    25    26   ar
    23    26    27   ar
    24    27    28   ar
    25    28    29    1
    26    28    30   ar
    27    30    31   ar
    28     7     1    1
    29    31    25   ar
    30    18    10    1
    31    18    14    1
    32    19    22    1
    33     2     8    1
    34     2     9    1
@<TRIPOS>MOLECULE
*****
 31 34 0 0 0
SMALL
GASTEIGER

@<TRIPOS>ATOM
      1 C         139.7580  138.6439  162.4821 C.3     1  UNL1        0.1166
      2 N         138.6363  137.6512  162.5594 N.3     1  UNL1       -0.3162
      3 C         140.8314  139.5952  162.9218 C.3     1  UNL1        0.0739
      4 C         141.6547  140.3212  161.8997 C.3     1  UNL1        0.2039
      5 N         141.4049  140.0962  160.4378 N.pl3   1  UNL1       -0.1931
      6 C         140.3316  139.1450  159.9981 C.3     1  UNL1        0.2039
      7 C         139.5082  138.4189  161.0203 C.3     1  UNL1        0.0739
      8 H         138.4178  137.4605  163.5373 H       1  UNL1        0.1192
      9 H         138.9161  136.7855  162.0984 H       1  UNL1        0.1192
     10 C         142.2283  140.8223  159.4157 C.2     1  UNL1        0.3205
     11 N         143.1636  140.0584  158.5259 N.2     1  UNL1        0.0097
     12 C         143.9870  140.7845  157.5038 C.2     1  UNL1        0.4717
     13 N         143.8752  142.2745  157.3715 N.2     1  UNL1        0.0158
     14 C         142.9400  143.0384  158.2613 C.2     1  UNL1        0.3714
     15 N         142.6195  144.5003  158.3614 N.2     1  UNL1       -0.0339
     16 C         141.5980  144.6777  159.4454 C.2     1  UNL1        0.2323
     17 C         141.2871  143.3254  160.0153 C.2     1  UNL1        0.0486
     18 C         142.1165  142.3122  159.2834 C.3     1  UNL1        0.2428
     19 N         138.7423  139.4832  164.7213 N.am    1  UNL1       -0.3012
     20 C         139.6183  138.5243  163.9708 C.2     1  UNL1        0.2352
     21 O         140.3546  137.4459  164.7090 O.2     1  UNL1       -0.2737
     22 H         138.2591  140.1910  164.2368 H       1  UNL1        0.1497
     23 C         137.7562  138.2741  166.7987 C.3     1  UNL1        0.0262
     24 C         138.6026  139.3636  166.2100 C.3     1  UNL1        0.0942
     25 C         139.3093  140.3335  167.1099 C.ar    1  UNL1       -0.0045
     26 C         140.0322  141.5101  166.5242 C.ar    1  UNL1       -0.0018
     27 C         140.7389  142.4800  167.4241 C.ar    1  UNL1        0.0111
     28 C         140.7226  142.2733  168.9098 C.ar    1  UNL1        0.0577
     29 CL        141.4293  143.2432  169.8097 Cl      1  UNL1       -0.0822
     30 C         139.9997  141.0967  169.4955 C.ar    1  UNL1        0.0111
     31 C         139.2930  140.1268  168.5955 C.ar    1  UNL1       -0.0018
@<TRIPOS>BOND
     1    23    24    1
     2    24    19    1
     3    19    20   am
     4    20    21    2
     5    20     1    1
     6     1     2    1
     7     1     3    1
     8     3     4    1
     9     4     5    1
    10     5    10    1
    11    10    11    2
    12    11    12    1
    13    12    13    2
    14    13    14    1
    15    14    15    2
    16    15    16    1
    17    16    17    2
    18    17    18    1
    19     5     6    1
    20     6     7    1
    21    24    25    1
    22    25    26   ar
    23    26    27   ar
    24    27    28   ar
    25    28    29    1
    26    28    30   ar
    27    30    31   ar
    28     7     1    1
    29    31    25   ar
    30    18    10    1
    31    18    14    1
    32    19    22    1
    33     2     8    1
    34     2     9    1
@<TRIPOS>MOLECULE
*****
 31 34 0 0 0
SMALL
GASTEIGER

@<TRIPOS>ATOM
      1 C         139.4361  144.2468  163.1577 C.3     1  UNL1        0.1166
      2 N         139.1661  145.0771  164.3773 N.3     1  UNL1       -0.3162
      3 C         139.5823  143.0411  162.2773 C.3     1  UNL1        0.0739
      4 C         139.9912  143.2046  160.8435 C.3     1  UNL1        0.2039
      5 N         140.2540  144.5738  160.2899 N.pl3   1  UNL1       -0.1931
      6 C         140.1078  145.7795  161.1702 C.3     1  UNL1        0.2039
      7 C         139.6988  145.6159  162.6041 C.3     1  UNL1        0.0739
      8 H         138.9033  144.4679  165.1521 H       1  UNL1        0.1192
      9 H         138.4053  145.7283  164.1837 H       1  UNL1        0.1192
     10 C         140.6629  144.7373  158.8560 C.2     1  UNL1        0.3205
     11 N         141.8119  145.6339  158.5013 N.2     1  UNL1        0.0097
     12 C         142.2208  145.7974  157.0675 C.2     1  UNL1        0.4717
     13 N         141.4807  145.0641  155.9882 N.2     1  UNL1        0.0158
     14 C         140.3317  144.1675  156.3429 C.2     1  UNL1        0.3714
     15 N         139.4209  143.3231  155.5019 N.2     1  UNL1       -0.0339
     16 C         138.4490  142.6378  156.4161 C.2     1  UNL1        0.2323
     17 C         138.7592  143.0586  157.8220 C.2     1  UNL1        0.0486
     18 C         139.9228  144.0041  157.7768 C.3     1  UNL1        0.2428
     19 N         140.1051  142.1458  164.5316 N.am    1  UNL1       -0.3012
     20 C         139.0796  143.1660  164.1348 C.2     1  UNL1        0.2352
     21 O         137.6977  143.1054  164.7150 O.2     1  UNL1       -0.2737
     22 H         141.0121  142.1856  164.1508 H       1  UNL1        0.1497
     23 C         139.1505  139.7792  165.0197 C.3     1  UNL1        0.0262
     24 C         139.7487  141.0649  165.5088 C.3     1  UNL1        0.0942
     25 C         139.9905  141.2697  166.9749 C.ar    1  UNL1       -0.0045
     26 C         140.5841  142.5574  167.4644 C.ar    1  UNL1       -0.0018
     27 C         140.8259  142.7622  168.9305 C.ar    1  UNL1        0.0111
     28 C         140.4741  141.6794  169.9071 C.ar    1  UNL1        0.0577
     29 CL        140.7159  141.8842  171.3733 Cl      1  UNL1       -0.0822
     30 C         139.8806  140.3918  169.4177 C.ar    1  UNL1        0.0111
     31 C         139.6387  140.1869  167.9515 C.ar    1  UNL1       -0.0018
@<TRIPOS>BOND
     1    23    24    1
     2    24    19    1
     3    19    20   am
     4    20    21    2
     5    20     1    1
     6     1     2    1
     7     1     3    1
     8     3     4    1
     9     4     5    1
    10     5    10    1
    11    10    11    2
    12    11    12    1
    13    12    13    2
    14    13    14    1
    15    14    15    2
    16    15    16    1
    17    16    17    2
    18    17    18    1
    19     5     6    1
    20     6     7    1
    21    24    25    1
    22    25    26   ar
    23    26    27   ar
    24    27    28   ar
    25    28    29    1
    26    28    30   ar
    27    30    31   ar
    28     7     1    1
    29    31    25   ar
    30    18    10    1
    31    18    14    1
    32    19    22    1
    33     2     8    1
    34     2     9    1
@<TRIPOS>MOLECULE
*****
 31 34 0 0 0
SMALL
GASTEIGER

@<TRIPOS>ATOM
      1 C         138.5468  140.9169  162.4975 C.3     1  UNL1        0.1166
      2 N         137.0663  141.0390  162.7043 N.3     1  UNL1       -0.3162
      3 C         140.0027  140.7301  162.8070 C.3     1  UNL1        0.0739
      4 C         141.0158  140.7721  161.7017 C.3     1  UNL1        0.2039
      5 N         140.5732  141.0010  160.2868 N.pl3   1  UNL1       -0.1931
      6 C         139.1174  141.1879  159.9773 C.3     1  UNL1        0.2039
      7 C         138.1043  141.1458  161.0827 C.3     1  UNL1        0.0739
      8 H         136.8514  140.9315  163.6956 H       1  UNL1        0.1192
      9 H         136.5875  140.3126  162.1719 H       1  UNL1        0.1192
     10 C         141.5864  141.0430  159.1815 C.2     1  UNL1        0.3205
     11 N         142.0993  142.3619  158.6840 N.2     1  UNL1        0.0097
     12 C         143.1124  142.4039  157.5788 C.2     1  UNL1        0.4717
     13 N         143.6128  141.1271  156.9709 N.2     1  UNL1        0.0158
     14 C         143.0999  139.8082  157.4685 C.2     1  UNL1        0.3714
     15 N         143.4061  138.3960  157.0663 N.2     1  UNL1       -0.0339
     16 C         142.5822  137.4811  157.9231 C.2     1  UNL1        0.2323
     17 C         141.7667  138.3279  158.8548 C.2     1  UNL1        0.0486
     18 C         142.0867  139.7662  158.5738 C.3     1  UNL1        0.2428
     19 N         138.9816  139.4628  164.6061 N.am    1  UNL1       -0.3012
     20 C         138.4753  140.7304  163.9841 C.2     1  UNL1        0.2352
     21 O         137.8975  141.8114  164.8487 O.2     1  UNL1       -0.2737
     22 H         139.3608  138.7533  164.0386 H       1  UNL1        0.1497
     23 C         137.7385  138.5665  166.7041 C.3     1  UNL1        0.0262
     24 C         138.9101  139.2762  166.0928 C.3     1  UNL1        0.0942
     25 C         140.0102  139.7993  166.9681 C.ar    1  UNL1       -0.0045
     26 C         139.7396  140.1033  168.4118 C.ar    1  UNL1       -0.0018
     27 C         140.8396  140.6264  169.2871 C.ar    1  UNL1        0.0111
     28 C         142.2104  140.8455  168.7186 C.ar    1  UNL1        0.0577
     29 CL        143.3105  141.3686  169.5940 Cl      1  UNL1       -0.0822
     30 C         142.4811  140.5415  167.2750 C.ar    1  UNL1        0.0111
     31 C         141.3809  140.0184  166.3996 C.ar    1  UNL1       -0.0018
@<TRIPOS>BOND
     1    23    24    1
     2    24    19    1
     3    19    20   am
     4    20    21    2
     5    20     1    1
     6     1     2    1
     7     1     3    1
     8     3     4    1
     9     4     5    1
    10     5    10    1
    11    10    11    2
    12    11    12    1
    13    12    13    2
    14    13    14    1
    15    14    15    2
    16    15    16    1
    17    16    17    2
    18    17    18    1
    19     5     6    1
    20     6     7    1
    21    24    25    1
    22    25    26   ar
    23    26    27   ar
    24    27    28   ar
    25    28    29    1
    26    28    30   ar
    27    30    31   ar
    28     7     1    1
    29    31    25   ar
    30    18    10    1
    31    18    14    1
    32    19    22    1
    33     2     8    1
    34     2     9    1
