@<TRIPOS>MOLECULE
*****
 36 39 0 0 0
SMALL
GASTEIGER

@<TRIPOS>ATOM
      1 C         140.2928  136.8552  156.0911 C.3     1  UNL1        0.0437
      2 C         141.4311  137.7346  156.5164 C.3     1  UNL1        0.1368
      3 C         141.8249  137.4689  155.0936 C.3     1  UNL1        0.0437
      4 C         142.7062  138.5217  156.4477 C.3     1  UNL1        0.0643
      5 C         143.1922  139.2692  157.6540 C.3     1  UNL1        0.1021
      6 C         142.4031  139.2295  158.9291 C.ar    1  UNL1        0.0488
      7 C         142.8891  139.9769  160.1354 C.ar    1  UNL1        0.0034
      8 C         142.1001  139.9373  161.4104 C.ar    1  UNL1        0.0177
      9 C         140.8250  139.1502  161.4792 C.ar    1  UNL1        0.0851
     10 N         140.3390  138.4027  160.2729 N.ar    1  UNL1       -0.2119
     11 C         141.1281  138.4424  158.9978 C.ar    1  UNL1        0.2219
     12 O         140.6421  137.6950  157.7915 O.3     1  UNL1       -0.4676
     13 C         140.0360  139.1105  162.7543 C.ar    1  UNL1        0.0284
     14 C         139.0282  140.1824  163.0463 C.ar    1  UNL1        0.0032
     15 C         138.2391  140.1427  164.3214 C.ar    1  UNL1        0.0115
     16 C         138.4579  139.0311  165.3045 C.ar    1  UNL1        0.0585
     17 CL        137.6689  138.9915  166.5795 Cl      1  UNL1       -0.0822
     18 C         139.4657  137.9592  165.0124 C.ar    1  UNL1        0.0228
     19 C         140.2547  137.9988  163.7374 C.ar    1  UNL1        0.0599
     20 CL        141.2625  136.9269  163.4454 Cl      1  UNL1       -0.0822
     21 C         142.5861  140.6847  162.6167 C.ar    1  UNL1        0.0015
     22 C         142.1773  142.1122  162.8295 C.ar    1  UNL1        0.0009
     23 C         142.6633  142.8596  164.0358 C.ar    1  UNL1        0.0114
     24 C         143.5581  142.1796  165.0293 C.ar    1  UNL1        0.0577
     25 CL        144.0440  142.9270  166.2356 Cl      1  UNL1       -0.0822
     26 C         143.9668  140.7521  164.8165 C.ar    1  UNL1        0.0114
     27 C         143.4808  140.0047  163.6102 C.ar    1  UNL1        0.0009
     28 N         144.4673  140.0563  157.5852 N.am    1  UNL1       -0.3000
     29 C         144.4536  141.4620  157.0619 C.2     1  UNL1        0.2467
     30 O         143.1649  142.0806  156.6075 O.2     1  UNL1       -0.2726
     31 H         145.3131  139.6503  157.8835 H       1  UNL1        0.1498
     32 C         145.7287  142.2491  156.9931 C.3     1  UNL1        0.1563
     33 C         145.4789  142.7745  158.3757 C.3     1  UNL1        0.0387
     34 C         145.9785  141.7236  155.6106 C.3     1  UNL1        0.0387
     35 O         147.0037  143.0362  156.9244 O.3     1  UNL1       -0.3781
     36 H         147.1262  143.5262  157.7525 H       1  UNL1        0.2109
@<TRIPOS>BOND
     1     1     2    1
     2     2     3    1
     3     2     4    1
     4     4     5    1
     5     5    28    1
     6    28    29   am
     7    29    30    2
     8    29    32    1
     9    32    33    1
    10    32    34    1
    11    32    35    1
    12     5     6    1
    13     6     7   ar
    14     7     8   ar
    15     8    21    1
    16    21    22   ar
    17    22    23   ar
    18    23    24   ar
    19    24    25    1
    20    24    26   ar
    21    26    27   ar
    22     8     9   ar
    23     9    13    1
    24    13    14   ar
    25    14    15   ar
    26    15    16   ar
    27    16    17    1
    28    16    18   ar
    29    18    19   ar
    30    19    20    1
    31     9    10   ar
    32    10    11   ar
    33    11    12    1
    34    12     2    1
    35    11     6   ar
    36    27    21   ar
    37    19    13   ar
    38    28    31    1
    39    35    36    1
@<TRIPOS>MOLECULE
*****
 36 39 0 0 0
SMALL
GASTEIGER

@<TRIPOS>ATOM
      1 C         139.6770  145.3095  155.1907 C.3     1  UNL1        0.0437
      2 C         139.8880  143.8580  155.5050 C.3     1  UNL1        0.1368
      3 C         140.0547  143.8286  154.0146 C.3     1  UNL1        0.0437
      4 C         140.1569  142.3964  155.3018 C.3     1  UNL1        0.0643
      5 C         140.1858  141.4682  156.4798 C.3     1  UNL1        0.1021
      6 C         139.9458  142.0016  157.8610 C.ar    1  UNL1        0.0488
      7 C         139.9747  141.0735  159.0390 C.ar    1  UNL1        0.0034
      8 C         139.7348  141.6069  160.4202 C.ar    1  UNL1        0.0177
      9 C         139.4658  143.0686  160.6235 C.ar    1  UNL1        0.0851
     10 N         139.4369  143.9967  159.4455 N.ar    1  UNL1       -0.2119
     11 C         139.6769  143.4632  158.0642 C.ar    1  UNL1        0.2219
     12 O         139.6480  144.3914  156.8863 O.3     1  UNL1       -0.4676
     13 C         139.2259  143.6020  162.0047 C.ar    1  UNL1        0.0284
     14 C         137.8584  143.5153  162.6151 C.ar    1  UNL1        0.0032
     15 C         137.6184  144.0488  163.9964 C.ar    1  UNL1        0.0115
     16 C         138.7459  144.6689  164.7672 C.ar    1  UNL1        0.0585
     17 CL        138.5059  145.2023  166.1485 Cl      1  UNL1       -0.0822
     18 C         140.1134  144.7555  164.1569 C.ar    1  UNL1        0.0228
     19 C         140.3534  144.2221  162.7757 C.ar    1  UNL1        0.0599
     20 CL        141.7208  144.3088  162.1653 Cl      1  UNL1       -0.0822
     21 C         139.7637  140.6787  161.5982 C.ar    1  UNL1        0.0015
     22 C         141.0222  140.5226  162.3994 C.ar    1  UNL1        0.0009
     23 C         141.0511  139.5945  163.5773 C.ar    1  UNL1        0.0114
     24 C         139.8215  138.8223  163.9541 C.ar    1  UNL1        0.0577
     25 CL        139.8504  137.8941  165.1321 Cl      1  UNL1       -0.0822
     26 C         138.5630  138.9784  163.1530 C.ar    1  UNL1        0.0114
     27 C         138.5341  139.9066  161.9750 C.ar    1  UNL1        0.0009
     28 N         140.4547  140.0065  156.2765 N.am    1  UNL1       -0.3000
     29 C         139.3112  139.0452  156.1416 C.2     1  UNL1        0.2467
     30 O         137.8988  139.5455  156.2099 O.2     1  UNL1       -0.2726
     31 H         141.3818  139.6782  156.2316 H       1  UNL1        0.1498
     32 C         139.5801  137.5836  155.9383 C.3     1  UNL1        0.1563
     33 C         140.6921  137.6485  156.9428 C.3     1  UNL1        0.0387
     34 C         138.4681  137.5187  154.9337 C.3     1  UNL1        0.0387
     35 O         139.8491  136.1220  155.7350 O.3     1  UNL1       -0.3781
     36 H         140.5850  135.8465  156.3037 H       1  UNL1        0.2109
@<TRIPOS>BOND
     1     1     2    1
     2     2     3    1
     3     2     4    1
     4     4     5    1
     5     5    28    1
     6    28    29   am
     7    29    30    2
     8    29    32    1
     9    32    33    1
    10    32    34    1
    11    32    35    1
    12     5     6    1
    13     6     7   ar
    14     7     8   ar
    15     8    21    1
    16    21    22   ar
    17    22    23   ar
    18    23    24   ar
    19    24    25    1
    20    24    26   ar
    21    26    27   ar
    22     8     9   ar
    23     9    13    1
    24    13    14   ar
    25    14    15   ar
    26    15    16   ar
    27    16    17    1
    28    16    18   ar
    29    18    19   ar
    30    19    20    1
    31     9    10   ar
    32    10    11   ar
    33    11    12    1
    34    12     2    1
    35    11     6   ar
    36    27    21   ar
    37    19    13   ar
    38    28    31    1
    39    35    36    1
@<TRIPOS>MOLECULE
*****
 36 39 0 0 0
SMALL
GASTEIGER

@<TRIPOS>ATOM
      1 C         137.0000  143.9470  155.0967 C.3     1  UNL1        0.0437
      2 C         137.4229  142.5316  155.3570 C.3     1  UNL1        0.1368
      3 C         137.1261  142.4490  153.8889 C.3     1  UNL1        0.0437
      4 C         137.7426  141.0875  155.1074 C.3     1  UNL1        0.0643
      5 C         138.2123  140.2175  156.2355 C.3     1  UNL1        0.1021
      6 C         138.3622  140.7915  157.6131 C.ar    1  UNL1        0.0488
      7 C         138.8319  139.9215  158.7411 C.ar    1  UNL1        0.0034
      8 C         138.9818  140.4956  160.1188 C.ar    1  UNL1        0.0177
      9 C         138.6620  141.9398  160.3684 C.ar    1  UNL1        0.0851
     10 N         138.1924  142.8098  159.2404 N.ar    1  UNL1       -0.2119
     11 C         138.0424  142.2356  157.8627 C.ar    1  UNL1        0.2219
     12 O         137.5728  143.1056  156.7346 O.3     1  UNL1       -0.4676
     13 C         138.8120  142.5139  161.7460 C.ar    1  UNL1        0.0284
     14 C         137.6892  142.3964  162.7338 C.ar    1  UNL1        0.0032
     15 C         137.8392  142.9705  164.1115 C.ar    1  UNL1        0.0115
     16 C         139.1118  143.6621  164.5014 C.ar    1  UNL1        0.0585
     17 CL        139.2618  144.2361  165.8790 Cl      1  UNL1       -0.0822
     18 C         140.2346  143.7795  163.5136 C.ar    1  UNL1        0.0228
     19 C         140.0847  143.2054  162.1360 C.ar    1  UNL1        0.0599
     20 CL        141.2074  143.3229  161.1483 Cl      1  UNL1       -0.0822
     21 C         139.4515  139.6256  161.2468 C.ar    1  UNL1        0.0015
     22 C         138.4719  138.7644  161.9878 C.ar    1  UNL1        0.0009
     23 C         138.9416  137.8944  163.1158 C.ar    1  UNL1        0.0114
     24 C         140.3908  137.8856  163.5029 C.ar    1  UNL1        0.0577
     25 CL        140.8605  137.0156  164.6310 Cl      1  UNL1       -0.0822
     26 C         141.3703  138.7468  162.7620 C.ar    1  UNL1        0.0114
     27 C         140.9006  139.6168  161.6340 C.ar    1  UNL1        0.0009
     28 N         138.5320  138.7733  155.9858 N.am    1  UNL1       -0.3000
     29 C         139.9533  138.3469  155.7667 C.2     1  UNL1        0.2467
     30 O         141.0549  139.3645  155.7973 O.2     1  UNL1       -0.2726
     31 H         137.8090  138.1054  155.9658 H       1  UNL1        0.1498
     32 C         140.2731  136.9027  155.5171 C.3     1  UNL1        0.1563
     33 C         139.2918  136.8815  154.3829 C.3     1  UNL1        0.0387
     34 C         141.2544  136.9239  156.6513 C.3     1  UNL1        0.0387
     35 O         140.5928  135.4586  155.2674 O.3     1  UNL1       -0.3781
     36 H         140.0634  135.1344  154.5221 H       1  UNL1        0.2109
@<TRIPOS>BOND
     1     1     2    1
     2     2     3    1
     3     2     4    1
     4     4     5    1
     5     5    28    1
     6    28    29   am
     7    29    30    2
     8    29    32    1
     9    32    33    1
    10    32    34    1
    11    32    35    1
    12     5     6    1
    13     6     7   ar
    14     7     8   ar
    15     8    21    1
    16    21    22   ar
    17    22    23   ar
    18    23    24   ar
    19    24    25    1
    20    24    26   ar
    21    26    27   ar
    22     8     9   ar
    23     9    13    1
    24    13    14   ar
    25    14    15   ar
    26    15    16   ar
    27    16    17    1
    28    16    18   ar
    29    18    19   ar
    30    19    20    1
    31     9    10   ar
    32    10    11   ar
    33    11    12    1
    34    12     2    1
    35    11     6   ar
    36    27    21   ar
    37    19    13   ar
    38    28    31    1
    39    35    36    1
@<TRIPOS>MOLECULE
*****
 36 39 0 0 0
SMALL
GASTEIGER

@<TRIPOS>ATOM
      1 C         146.0067  142.5297  154.9735 C.3     1  UNL1        0.0437
      2 C         145.0349  141.4381  155.3112 C.3     1  UNL1        0.1368
      3 C         145.1679  141.2204  153.8330 C.3     1  UNL1        0.0437
      4 C         144.1093  140.2709  155.1355 C.3     1  UNL1        0.0643
      5 C         143.3882  139.7005  156.3207 C.3     1  UNL1        0.1021
      6 C         143.5926  140.2973  157.6815 C.ar    1  UNL1        0.0488
      7 C         142.8715  139.7270  158.8667 C.ar    1  UNL1        0.0034
      8 C         143.0760  140.3238  160.2276 C.ar    1  UNL1        0.0177
      9 C         144.0016  141.4910  160.4033 C.ar    1  UNL1        0.0851
     10 N         144.7227  142.0614  159.2181 N.ar    1  UNL1       -0.2119
     11 C         144.5182  141.4645  157.8572 C.ar    1  UNL1        0.2219
     12 O         145.2393  142.0349  156.6720 O.3     1  UNL1       -0.4676
     13 C         144.2061  142.0879  161.7641 C.ar    1  UNL1        0.0284
     14 C         145.1947  141.4748  162.7111 C.ar    1  UNL1        0.0032
     15 C         145.3991  142.0717  164.0721 C.ar    1  UNL1        0.0115
     16 C         144.6150  143.2816  164.4859 C.ar    1  UNL1        0.0585
     17 CL        144.8194  143.8784  165.8468 Cl      1  UNL1       -0.0822
     18 C         143.6263  143.8946  163.5389 C.ar    1  UNL1        0.0228
     19 C         143.4219  143.2978  162.1780 C.ar    1  UNL1        0.0599
     20 CL        142.4333  143.9108  161.2310 Cl      1  UNL1       -0.0822
     21 C         142.3549  139.7534  161.4127 C.ar    1  UNL1        0.0015
     22 C         141.0871  140.3919  161.8979 C.ar    1  UNL1        0.0009
     23 C         140.3660  139.8215  163.0831 C.ar    1  UNL1        0.0114
     24 C         140.9126  138.6126  163.7831 C.ar    1  UNL1        0.0577
     25 CL        140.1915  138.0422  164.9683 Cl      1  UNL1       -0.0822
     26 C         142.1803  137.9742  163.2979 C.ar    1  UNL1        0.0114
     27 C         142.9014  138.5446  162.1128 C.ar    1  UNL1        0.0009
     28 N         142.4626  138.5333  156.1450 N.am    1  UNL1       -0.3000
     29 C         143.0202  137.1698  155.8621 C.2     1  UNL1        0.2467
     30 O         144.5034  136.9736  155.7549 O.2     1  UNL1       -0.2726
     31 H         141.4891  138.6620  156.2153 H       1  UNL1        0.1498
     32 C         142.0946  136.0026  155.6863 C.3     1  UNL1        0.1563
     33 C         143.2278  135.1864  155.1391 C.3     1  UNL1        0.0387
     34 C         140.9613  136.8188  156.2336 C.3     1  UNL1        0.0387
     35 O         141.1691  134.8353  155.5106 O.3     1  UNL1       -0.3781
     36 H         141.6605  134.0861  155.1391 H       1  UNL1        0.2109
@<TRIPOS>BOND
     1     1     2    1
     2     2     3    1
     3     2     4    1
     4     4     5    1
     5     5    28    1
     6    28    29   am
     7    29    30    2
     8    29    32    1
     9    32    33    1
    10    32    34    1
    11    32    35    1
    12     5     6    1
    13     6     7   ar
    14     7     8   ar
    15     8    21    1
    16    21    22   ar
    17    22    23   ar
    18    23    24   ar
    19    24    25    1
    20    24    26   ar
    21    26    27   ar
    22     8     9   ar
    23     9    13    1
    24    13    14   ar
    25    14    15   ar
    26    15    16   ar
    27    16    17    1
    28    16    18   ar
    29    18    19   ar
    30    19    20    1
    31     9    10   ar
    32    10    11   ar
    33    11    12    1
    34    12     2    1
    35    11     6   ar
    36    27    21   ar
    37    19    13   ar
    38    28    31    1
    39    35    36    1
@<TRIPOS>MOLECULE
*****
 36 39 0 0 0
SMALL
GASTEIGER

@<TRIPOS>ATOM
      1 C         144.0917  135.4699  156.0927 C.3     1  UNL1        0.0437
      2 C         142.9486  136.4401  156.0482 C.3     1  UNL1        0.1368
      3 C         143.0182  136.0530  154.6006 C.3     1  UNL1        0.0437
      4 C         141.8297  137.2759  155.5010 C.3     1  UNL1        0.0643
      5 C         141.0382  138.1618  156.4168 C.3     1  UNL1        0.1021
      6 C         141.3656  138.2120  157.8797 C.ar    1  UNL1        0.0488
      7 C         140.5741  139.0979  158.7955 C.ar    1  UNL1        0.0034
      8 C         140.9015  139.1481  160.2584 C.ar    1  UNL1        0.0177
      9 C         142.0204  138.3122  160.8057 C.ar    1  UNL1        0.0851
     10 N         142.8120  137.4263  159.8899 N.ar    1  UNL1       -0.2119
     11 C         142.4845  137.3762  158.4269 C.ar    1  UNL1        0.2219
     12 O         143.2760  136.4903  157.5111 O.3     1  UNL1       -0.4676
     13 C         142.3478  138.3624  162.2686 C.ar    1  UNL1        0.0284
     14 C         141.5228  137.5825  163.2490 C.ar    1  UNL1        0.0032
     15 C         141.8502  137.6327  164.7120 C.ar    1  UNL1        0.0115
     16 C         143.0027  138.4627  165.1946 C.ar    1  UNL1        0.0585
     17 CL        143.3301  138.5128  166.6575 Cl      1  UNL1       -0.0822
     18 C         143.8277  139.2426  164.2142 C.ar    1  UNL1        0.0228
     19 C         143.5003  139.1924  162.7513 C.ar    1  UNL1        0.0599
     20 CL        144.3254  139.9723  161.7709 Cl      1  UNL1       -0.0822
     21 C         140.1100  140.0340  161.1742 C.ar    1  UNL1        0.0015
     22 C         140.6543  141.3720  161.5787 C.ar    1  UNL1        0.0009
     23 C         139.8627  142.2579  162.4945 C.ar    1  UNL1        0.0114
     24 C         138.5269  141.8059  163.0057 C.ar    1  UNL1        0.0577
     25 CL        137.7354  142.6918  163.9215 Cl      1  UNL1       -0.0822
     26 C         137.9827  140.4679  162.6012 C.ar    1  UNL1        0.0114
     27 C         138.7742  139.5820  161.6855 C.ar    1  UNL1        0.0009
     28 N         139.9192  138.9977  155.8695 N.am    1  UNL1       -0.3000
     29 C         138.6096  138.3582  155.5149 C.2     1  UNL1        0.2467
     30 O         138.4188  136.8829  155.7076 O.2     1  UNL1       -0.2726
     31 H         140.0445  139.9659  155.7431 H       1  UNL1        0.1498
     32 C         137.4906  139.1940  154.9677 C.3     1  UNL1        0.1563
     33 C         138.0117  140.3832  155.7187 C.3     1  UNL1        0.0387
     34 C         136.9696  138.0047  154.2166 C.3     1  UNL1        0.0387
     35 O         136.3717  140.0298  154.4205 O.3     1  UNL1       -0.3781
     36 H         136.4482  140.9350  154.7605 H       1  UNL1        0.2109
@<TRIPOS>BOND
     1     1     2    1
     2     2     3    1
     3     2     4    1
     4     4     5    1
     5     5    28    1
     6    28    29   am
     7    29    30    2
     8    29    32    1
     9    32    33    1
    10    32    34    1
    11    32    35    1
    12     5     6    1
    13     6     7   ar
    14     7     8   ar
    15     8    21    1
    16    21    22   ar
    17    22    23   ar
    18    23    24   ar
    19    24    25    1
    20    24    26   ar
    21    26    27   ar
    22     8     9   ar
    23     9    13    1
    24    13    14   ar
    25    14    15   ar
    26    15    16   ar
    27    16    17    1
    28    16    18   ar
    29    18    19   ar
    30    19    20    1
    31     9    10   ar
    32    10    11   ar
    33    11    12    1
    34    12     2    1
    35    11     6   ar
    36    27    21   ar
    37    19    13   ar
    38    28    31    1
    39    35    36    1
@<TRIPOS>MOLECULE
*****
 36 39 0 0 0
SMALL
GASTEIGER

@<TRIPOS>ATOM
      1 C         142.5998  137.1012  157.4281 C.3     1  UNL1        0.0437
      2 C         141.7494  138.3365  157.4602 C.3     1  UNL1        0.1368
      3 C         141.7233  138.0404  155.9899 C.3     1  UNL1        0.0437
      4 C         140.8900  139.4689  156.9818 C.3     1  UNL1        0.0643
      5 C         140.3521  140.4684  157.9623 C.3     1  UNL1        0.1021
      6 C         140.6736  140.3356  159.4214 C.ar    1  UNL1        0.0488
      7 C         140.1357  141.3351  160.4020 C.ar    1  UNL1        0.0034
      8 C         140.4571  141.2022  161.8611 C.ar    1  UNL1        0.0177
      9 C         141.3166  140.0697  162.3396 C.ar    1  UNL1        0.0851
     10 N         141.8545  139.0702  161.3590 N.ar    1  UNL1       -0.2119
     11 C         141.5330  139.2031  159.8999 C.ar    1  UNL1        0.2219
     12 O         142.0709  138.2036  158.9193 O.3     1  UNL1       -0.4676
     13 C         141.6381  139.9369  163.7987 C.ar    1  UNL1        0.0284
     14 C         142.8955  140.5430  164.3479 C.ar    1  UNL1        0.0032
     15 C         143.2169  140.4101  165.8071 C.ar    1  UNL1        0.0115
     16 C         142.2811  139.6711  166.7169 C.ar    1  UNL1        0.0585
     17 CL        142.6026  139.5382  168.1760 Cl      1  UNL1       -0.0822
     18 C         141.0237  139.0649  166.1677 C.ar    1  UNL1        0.0228
     19 C         140.7022  139.1978  164.7087 C.ar    1  UNL1        0.0599
     20 CL        139.4448  138.5917  164.1595 Cl      1  UNL1       -0.0822
     21 C         139.9192  142.2017  162.8417 C.ar    1  UNL1        0.0015
     22 C         140.7672  143.3621  163.2713 C.ar    1  UNL1        0.0009
     23 C         140.2293  144.3617  164.2519 C.ar    1  UNL1        0.0114
     24 C         138.8434  144.2008  164.8029 C.ar    1  UNL1        0.0577
     25 CL        138.3054  145.2003  165.7835 Cl      1  UNL1       -0.0822
     26 C         137.9955  143.0405  164.3732 C.ar    1  UNL1        0.0114
     27 C         138.5334  142.0409  163.3926 C.ar    1  UNL1        0.0009
     28 N         139.4926  141.6009  157.4838 N.am    1  UNL1       -0.3000
     29 C         138.1140  141.3268  156.9602 C.2     1  UNL1        0.2467
     30 O         137.5948  139.9202  156.9150 O.2     1  UNL1       -0.2726
     31 H         139.8334  142.5241  157.5134 H       1  UNL1        0.1498
     32 C         137.2546  142.4593  156.4816 C.3     1  UNL1        0.1563
     33 C         136.1422  141.4944  156.1962 C.3     1  UNL1        0.0387
     34 C         138.3670  143.4241  156.7670 C.3     1  UNL1        0.0387
     35 O         136.3951  143.5916  156.0031 O.3     1  UNL1       -0.3781
     36 H         135.5316  143.2474  155.7259 H       1  UNL1        0.2109
@<TRIPOS>BOND
     1     1     2    1
     2     2     3    1
     3     2     4    1
     4     4     5    1
     5     5    28    1
     6    28    29   am
     7    29    30    2
     8    29    32    1
     9    32    33    1
    10    32    34    1
    11    32    35    1
    12     5     6    1
    13     6     7   ar
    14     7     8   ar
    15     8    21    1
    16    21    22   ar
    17    22    23   ar
    18    23    24   ar
    19    24    25    1
    20    24    26   ar
    21    26    27   ar
    22     8     9   ar
    23     9    13    1
    24    13    14   ar
    25    14    15   ar
    26    15    16   ar
    27    16    17    1
    28    16    18   ar
    29    18    19   ar
    30    19    20    1
    31     9    10   ar
    32    10    11   ar
    33    11    12    1
    34    12     2    1
    35    11     6   ar
    36    27    21   ar
    37    19    13   ar
    38    28    31    1
    39    35    36    1
@<TRIPOS>MOLECULE
*****
 36 39 0 0 0
SMALL
GASTEIGER

@<TRIPOS>ATOM
      1 C         145.2478  142.8812  160.1770 C.3     1  UNL1        0.0437
      2 C         143.9127  142.2121  160.0353 C.3     1  UNL1        0.1368
      3 C         144.1853  142.5560  158.6009 C.3     1  UNL1        0.0437
      4 C         142.6724  141.6625  159.3954 C.3     1  UNL1        0.0643
      5 C         141.6231  141.0014  160.2392 C.3     1  UNL1        0.1021
      6 C         141.8142  140.8898  161.7227 C.ar    1  UNL1        0.0488
      7 C         140.7649  140.2287  162.5665 C.ar    1  UNL1        0.0034
      8 C         140.9559  140.1172  164.0500 C.ar    1  UNL1        0.0177
      9 C         142.1963  140.6668  164.6900 C.ar    1  UNL1        0.0851
     10 N         143.2456  141.3280  163.8462 N.ar    1  UNL1       -0.2119
     11 C         143.0545  141.4395  162.3626 C.ar    1  UNL1        0.2219
     12 O         144.1038  142.1006  161.5188 O.3     1  UNL1       -0.4676
     13 C         142.3873  140.5553  166.1735 C.ar    1  UNL1        0.0284
     14 C         142.1823  141.7563  167.0485 C.ar    1  UNL1        0.0032
     15 C         142.3734  141.6448  168.5321 C.ar    1  UNL1        0.0115
     16 C         142.7694  140.3323  169.1407 C.ar    1  UNL1        0.0585
     17 CL        142.9605  140.2208  170.6243 Cl      1  UNL1       -0.0822
     18 C         142.9745  139.1313  168.2658 C.ar    1  UNL1        0.0228
     19 C         142.7834  139.2428  166.7822 C.ar    1  UNL1        0.0599
     20 CL        142.9884  138.0418  165.9072 Cl      1  UNL1       -0.0822
     21 C         139.9066  139.4561  164.8938 C.ar    1  UNL1        0.0015
     22 C         139.6223  137.9927  164.7269 C.ar    1  UNL1        0.0009
     23 C         138.5730  137.3315  165.5706 C.ar    1  UNL1        0.0114
     24 C         137.8080  138.1338  166.5812 C.ar    1  UNL1        0.0577
     25 CL        136.7587  137.4726  167.4250 Cl      1  UNL1       -0.0822
     26 C         138.0923  139.5971  166.7481 C.ar    1  UNL1        0.0114
     27 C         139.1416  140.2582  165.9043 C.ar    1  UNL1        0.0009
     28 N         140.3827  140.4517  159.5993 N.am    1  UNL1       -0.3000
     29 C         139.2204  141.3568  159.3167 C.2     1  UNL1        0.2467
     30 O         139.2984  142.8115  159.6741 O.2     1  UNL1       -0.2726
     31 H         140.3315  139.4969  159.3647 H       1  UNL1        0.1498
     32 C         137.9800  140.8071  158.6768 C.3     1  UNL1        0.1563
     33 C         138.2207  141.6672  157.4717 C.3     1  UNL1        0.0387
     34 C         137.7394  139.9471  159.8819 C.3     1  UNL1        0.0387
     35 O         136.7397  140.2575  158.0369 O.3     1  UNL1       -0.3781
     36 H         136.6191  140.6634  157.1642 H       1  UNL1        0.2109
@<TRIPOS>BOND
     1     1     2    1
     2     2     3    1
     3     2     4    1
     4     4     5    1
     5     5    28    1
     6    28    29   am
     7    29    30    2
     8    29    32    1
     9    32    33    1
    10    32    34    1
    11    32    35    1
    12     5     6    1
    13     6     7   ar
    14     7     8   ar
    15     8    21    1
    16    21    22   ar
    17    22    23   ar
    18    23    24   ar
    19    24    25    1
    20    24    26   ar
    21    26    27   ar
    22     8     9   ar
    23     9    13    1
    24    13    14   ar
    25    14    15   ar
    26    15    16   ar
    27    16    17    1
    28    16    18   ar
    29    18    19   ar
    30    19    20    1
    31     9    10   ar
    32    10    11   ar
    33    11    12    1
    34    12     2    1
    35    11     6   ar
    36    27    21   ar
    37    19    13   ar
    38    28    31    1
    39    35    36    1
@<TRIPOS>MOLECULE
*****
 36 39 0 0 0
SMALL
GASTEIGER

@<TRIPOS>ATOM
      1 C         145.9303  142.0013  156.2969 C.3     1  UNL1        0.0437
      2 C         144.8931  140.9260  156.4313 C.3     1  UNL1        0.1368
      3 C         145.2255  140.7868  154.9752 C.3     1  UNL1        0.0437
      4 C         143.9715  139.8023  156.0600 C.3     1  UNL1        0.0643
      5 C         143.0776  139.1913  157.0981 C.3     1  UNL1        0.1021
      6 C         143.1055  139.7039  158.5075 C.ar    1  UNL1        0.0488
      7 C         142.2117  139.0929  159.5457 C.ar    1  UNL1        0.0034
      8 C         142.2395  139.6055  160.9550 C.ar    1  UNL1        0.0177
      9 C         143.1612  140.7292  161.3264 C.ar    1  UNL1        0.0851
     10 N         144.0551  141.3402  160.2882 N.ar    1  UNL1       -0.2119
     11 C         144.0272  140.8275  158.8788 C.ar    1  UNL1        0.2219
     12 O         144.9210  141.4386  157.8407 O.3     1  UNL1       -0.4676
     13 C         143.1891  141.2418  162.7358 C.ar    1  UNL1        0.0284
     14 C         142.4197  142.4769  163.1000 C.ar    1  UNL1        0.0032
     15 C         142.4476  142.9895  164.5095 C.ar    1  UNL1        0.0115
     16 C         143.2448  142.2670  165.5546 C.ar    1  UNL1        0.0585
     17 CL        143.2727  142.7796  166.9640 Cl      1  UNL1       -0.0822
     18 C         144.0142  141.0319  165.1904 C.ar    1  UNL1        0.0228
     19 C         143.9863  140.5193  163.7810 C.ar    1  UNL1        0.0599
     20 CL        144.7557  139.2842  163.4168 Cl      1  UNL1       -0.0822
     21 C         141.3457  138.9944  161.9932 C.ar    1  UNL1        0.0015
     22 C         140.0300  139.6358  162.3216 C.ar    1  UNL1        0.0009
     23 C         139.1362  139.0248  163.3597 C.ar    1  UNL1        0.0114
     24 C         139.5580  137.7724  164.0694 C.ar    1  UNL1        0.0577
     25 CL        138.6642  137.1613  165.1075 Cl      1  UNL1       -0.0822
     26 C         140.8736  137.1310  163.7410 C.ar    1  UNL1        0.0114
     27 C         141.7674  137.7421  162.7028 C.ar    1  UNL1        0.0009
     28 N         142.1559  138.0676  156.7268 N.am    1  UNL1       -0.3000
     29 C         142.7198  136.7544  156.2714 C.2     1  UNL1        0.2467
     30 O         144.2054  136.5648  156.1874 O.2     1  UNL1       -0.2726
     31 H         141.1809  138.1920  156.7820 H       1  UNL1        0.1498
     32 C         141.7981  135.6307  155.9001 C.3     1  UNL1        0.1563
     33 C         140.6674  136.6058  155.7560 C.3     1  UNL1        0.0387
     34 C         142.9287  134.6556  156.0442 C.3     1  UNL1        0.0387
     35 O         140.8763  134.5071  155.5288 O.3     1  UNL1       -0.3781
     36 H         139.9883  134.8594  155.3609 H       1  UNL1        0.2109
@<TRIPOS>BOND
     1     1     2    1
     2     2     3    1
     3     2     4    1
     4     4     5    1
     5     5    28    1
     6    28    29   am
     7    29    30    2
     8    29    32    1
     9    32    33    1
    10    32    34    1
    11    32    35    1
    12     5     6    1
    13     6     7   ar
    14     7     8   ar
    15     8    21    1
    16    21    22   ar
    17    22    23   ar
    18    23    24   ar
    19    24    25    1
    20    24    26   ar
    21    26    27   ar
    22     8     9   ar
    23     9    13    1
    24    13    14   ar
    25    14    15   ar
    26    15    16   ar
    27    16    17    1
    28    16    18   ar
    29    18    19   ar
    30    19    20    1
    31     9    10   ar
    32    10    11   ar
    33    11    12    1
    34    12     2    1
    35    11     6   ar
    36    27    21   ar
    37    19    13   ar
    38    28    31    1
    39    35    36    1
@<TRIPOS>MOLECULE
*****
 36 39 0 0 0
SMALL
GASTEIGER

@<TRIPOS>ATOM
      1 C         137.8230  137.9374  153.8221 C.3     1  UNL1        0.0437
      2 C         139.0493  137.3891  154.4897 C.3     1  UNL1        0.1368
      3 C         139.1126  136.6536  153.1839 C.3     1  UNL1        0.0437
      4 C         140.2975  136.5854  154.7038 C.3     1  UNL1        0.0643
      5 C         141.0566  136.7076  155.9918 C.3     1  UNL1        0.1021
      6 C         140.5674  137.6335  157.0657 C.ar    1  UNL1        0.0488
      7 C         141.3264  137.7557  158.3537 C.ar    1  UNL1        0.0034
      8 C         140.8372  138.6816  159.4276 C.ar    1  UNL1        0.0177
      9 C         139.5889  139.4854  159.2135 C.ar    1  UNL1        0.0851
     10 N         138.8299  139.3632  157.9255 N.ar    1  UNL1       -0.2119
     11 C         139.3191  138.4372  156.8516 C.ar    1  UNL1        0.2219
     12 O         138.5601  138.3150  155.5636 O.3     1  UNL1       -0.4676
     13 C         139.0997  140.4113  160.2874 C.ar    1  UNL1        0.0284
     14 C         139.5151  141.8526  160.2815 C.ar    1  UNL1        0.0032
     15 C         139.0259  142.7786  161.3555 C.ar    1  UNL1        0.0115
     16 C         138.1213  142.2632  162.4353 C.ar    1  UNL1        0.0585
     17 CL        137.6321  143.1891  163.5092 Cl      1  UNL1       -0.0822
     18 C         137.7059  140.8218  162.4412 C.ar    1  UNL1        0.0228
     19 C         138.1951  139.8959  161.3673 C.ar    1  UNL1        0.0599
     20 CL        137.7797  138.4546  161.3732 Cl      1  UNL1       -0.0822
     21 C         141.5962  138.8038  160.7156 C.ar    1  UNL1        0.0015
     22 C         141.3162  137.8559  161.8440 C.ar    1  UNL1        0.0009
     23 C         142.0752  137.9781  163.1320 C.ar    1  UNL1        0.0114
     24 C         143.1143  139.0481  163.2915 C.ar    1  UNL1        0.0577
     25 CL        143.8734  139.1703  164.5795 Cl      1  UNL1       -0.0822
     26 C         143.3943  139.9959  162.1632 C.ar    1  UNL1        0.0114
     27 C         142.6353  139.8737  160.8752 C.ar    1  UNL1        0.0009
     28 N         142.3049  135.9038  156.2058 N.am    1  UNL1       -0.3000
     29 C         142.3020  134.4281  155.9371 C.2     1  UNL1        0.2467
     30 O         141.0508  133.7561  155.4543 O.2     1  UNL1       -0.2726
     31 H         143.1260  136.3448  156.5227 H       1  UNL1        0.1498
     32 C         143.5503  133.6243  156.1511 C.3     1  UNL1        0.1563
     33 C         143.3144  132.9121  154.8523 C.3     1  UNL1        0.0387
     34 C         143.7862  134.3364  157.4500 C.3     1  UNL1        0.0387
     35 O         144.7985  132.8205  156.3651 O.3     1  UNL1       -0.3781
     36 H         144.9237  132.2130  155.6193 H       1  UNL1        0.2109
@<TRIPOS>BOND
     1     1     2    1
     2     2     3    1
     3     2     4    1
     4     4     5    1
     5     5    28    1
     6    28    29   am
     7    29    30    2
     8    29    32    1
     9    32    33    1
    10    32    34    1
    11    32    35    1
    12     5     6    1
    13     6     7   ar
    14     7     8   ar
    15     8    21    1
    16    21    22   ar
    17    22    23   ar
    18    23    24   ar
    19    24    25    1
    20    24    26   ar
    21    26    27   ar
    22     8     9   ar
    23     9    13    1
    24    13    14   ar
    25    14    15   ar
    26    15    16   ar
    27    16    17    1
    28    16    18   ar
    29    18    19   ar
    30    19    20    1
    31     9    10   ar
    32    10    11   ar
    33    11    12    1
    34    12     2    1
    35    11     6   ar
    36    27    21   ar
    37    19    13   ar
    38    28    31    1
    39    35    36    1
