@<TRIPOS>MOLECULE
*****
 32 36 0 0 0
SMALL
GASTEIGER

@<TRIPOS>ATOM
      1 C         141.3717  142.3282  163.4468 C.ar    1  UNL1        0.0046
      2 C         142.1840  141.0774  163.6068 C.ar    1  UNL1        0.0015
      3 C         142.4185  140.5052  164.9734 C.ar    1  UNL1        0.0181
      4 C         141.8406  141.1837  166.1799 C.ar    1  UNL1        0.0910
      5 C         141.0283  142.4345  166.0199 C.ar    1  UNL1        0.1522
      6 C         140.7939  143.0067  164.6533 C.ar    1  UNL1        0.0382
      7 O         140.4504  143.1130  167.2264 O.3     1  UNL1       -0.4723
      8 C         140.6849  142.5407  168.5929 C.3     1  UNL1        0.2293
      9 C         141.4972  141.2899  168.7530 C.3     1  UNL1        0.1691
     10 C         141.8935  140.4985  169.9641 C.3     1  UNL1        0.2216
     11 O         142.7161  139.3310  169.5061 O.3     1  UNL1       -0.4336
     12 C         142.8284  139.4006  168.0120 C.2     1  UNL1        0.4089
     13 O         143.5648  138.4301  167.1369 O.2     1  UNL1       -0.2258
     14 N         142.0751  140.6114  167.5465 N.am    1  UNL1       -0.2164
     15 C         140.6683  144.0451  159.3470 C.ar    1  UNL1        0.1400
     16 C         141.9428  143.3120  159.6447 C.ar    1  UNL1        0.0348
     17 C         142.1772  142.7398  161.0112 C.ar    1  UNL1        0.0044
     18 C         141.1372  142.9005  162.0802 C.ar    1  UNL1        0.0194
     19 C         139.8629  143.6335  161.7826 C.ar    1  UNL1        0.1003
     20 N         139.6284  144.2058  160.4160 N.ar    1  UNL1       -0.2287
     21 O         142.5088  146.2989  157.8697 O.2     1  UNL1       -0.2258
     22 C         141.2799  145.6533  157.3015 C.2     1  UNL1        0.4099
     23 O         140.6812  145.9304  155.9543 O.3     1  UNL1       -0.4336
     24 C         139.4651  145.0656  155.8007 C.3     1  UNL1        0.2197
     25 C         139.3123  144.2542  157.0530 C.3     1  UNL1        0.1491
     26 N         140.4339  144.6174  157.9805 N.am    1  UNL1       -0.2059
     27 C         138.5608  145.0204  154.6049 C.3     1  UNL1        0.1828
     28 O         137.3663  145.9249  154.5333 O.3     1  UNL1       -0.3785
     29 H         136.7326  145.6791  155.2254 H       1  UNL1        0.2106
     30 C         141.5306  140.8186  171.3839 C.3     1  UNL1        0.1828
     31 O         141.8959  142.1504  171.9694 O.3     1  UNL1       -0.3785
     32 H         142.8613  142.2240  172.0280 H       1  UNL1        0.2106
@<TRIPOS>BOND
     1    21    22    2
     2    22    23    1
     3    23    24    1
     4    24    27    1
     5    27    28    1
     6    24    25    1
     7    25    26    1
     8    26    15    1
     9    15    16   ar
    10    16    17   ar
    11    17    18   ar
    12    18     1    1
    13     1     2   ar
    14     2     3   ar
    15     3     4   ar
    16     4     5   ar
    17     5     6   ar
    18     5     7    1
    19     7     8    1
    20     9     8    1
    21     9    10    1
    22    10    30    1
    23    30    31    1
    24    10    11    1
    25    11    12    1
    26    12    13    2
    27    12    14   am
    28    18    19   ar
    29    19    20   ar
    30    26    22   am
    31    20    15   ar
    32     6     1   ar
    33    14     9    1
    34    14     4    1
    35    28    29    1
    36    31    32    1
@<TRIPOS>MOLECULE
*****
 32 36 0 0 0
SMALL
GASTEIGER

@<TRIPOS>ATOM
      1 C         140.5178  138.6989  162.5923 C.ar    1  UNL1        0.0046
      2 C         139.2322  138.1136  163.0967 C.ar    1  UNL1        0.0015
      3 C         138.8165  138.3324  164.5212 C.ar    1  UNL1        0.0181
      4 C         139.6864  139.1365  165.4413 C.ar    1  UNL1        0.0910
      5 C         140.9721  139.7218  164.9370 C.ar    1  UNL1        0.1522
      6 C         141.3878  139.5030  163.5124 C.ar    1  UNL1        0.0382
      7 O         141.8421  140.5258  165.8571 O.3     1  UNL1       -0.4723
      8 C         141.4264  140.7446  167.2816 C.3     1  UNL1        0.2293
      9 C         140.1407  140.1593  167.7861 C.3     1  UNL1        0.1691
     10 C         139.4752  140.2065  169.1296 C.3     1  UNL1        0.2216
     11 O         138.1941  139.4317  169.0397 O.3     1  UNL1       -0.4336
     12 C         138.0676  138.9055  167.6408 C.2     1  UNL1        0.4089
     13 O         136.9367  138.0754  167.1098 O.2     1  UNL1       -0.2258
     14 N         139.2707  139.3552  166.8659 N.am    1  UNL1       -0.2164
     15 C         141.7651  138.0426  158.3187 C.ar    1  UNL1        0.1400
     16 C         142.7405  137.7951  159.4311 C.ar    1  UNL1        0.0348
     17 C         142.3247  138.0139  160.8556 C.ar    1  UNL1        0.0044
     18 C         140.9336  138.4801  161.1677 C.ar    1  UNL1        0.0194
     19 C         139.9583  138.7277  160.0554 C.ar    1  UNL1        0.1003
     20 N         140.3740  138.5089  158.6308 N.ar    1  UNL1       -0.2287
     21 O         144.3246  139.4195  156.8345 O.2     1  UNL1       -0.2258
     22 C         143.3573  138.4567  156.2120 C.2     1  UNL1        0.4099
     23 O         143.3968  137.9578  154.7980 O.3     1  UNL1       -0.4336
     24 C         142.2447  137.0166  154.6062 C.3     1  UNL1        0.2197
     25 C         141.4932  136.9338  155.9017 C.3     1  UNL1        0.1491
     26 N         142.1809  137.8238  156.8942 N.am    1  UNL1       -0.2059
     27 C         141.9039  136.2863  153.3410 C.3     1  UNL1        0.1828
     28 O         142.3689  136.8200  152.0185 O.3     1  UNL1       -0.3785
     29 H         141.9315  137.6671  151.8398 H       1  UNL1        0.2106
     30 C         139.9991  140.9058  170.3488 C.3     1  UNL1        0.1828
     31 O         140.2794  140.1254  171.5987 O.3     1  UNL1       -0.3785
     32 H         139.4475  139.7774  171.9561 H       1  UNL1        0.2106
@<TRIPOS>BOND
     1    21    22    2
     2    22    23    1
     3    23    24    1
     4    24    27    1
     5    27    28    1
     6    24    25    1
     7    25    26    1
     8    26    15    1
     9    15    16   ar
    10    16    17   ar
    11    17    18   ar
    12    18     1    1
    13     1     2   ar
    14     2     3   ar
    15     3     4   ar
    16     4     5   ar
    17     5     6   ar
    18     5     7    1
    19     7     8    1
    20     9     8    1
    21     9    10    1
    22    10    30    1
    23    30    31    1
    24    10    11    1
    25    11    12    1
    26    12    13    2
    27    12    14   am
    28    18    19   ar
    29    19    20   ar
    30    26    22   am
    31    20    15   ar
    32     6     1   ar
    33    14     9    1
    34    14     4    1
    35    28    29    1
    36    31    32    1
@<TRIPOS>MOLECULE
*****
 32 36 0 0 0
SMALL
GASTEIGER

@<TRIPOS>ATOM
      1 C         138.9897  141.1950  163.1161 C.ar    1  UNL1        0.0046
      2 C         138.1090  140.2864  163.9215 C.ar    1  UNL1        0.0015
      3 C         138.3762  140.0856  165.3838 C.ar    1  UNL1        0.0181
      4 C         139.5241  140.7935  166.0406 C.ar    1  UNL1        0.0910
      5 C         140.4048  141.7020  165.2351 C.ar    1  UNL1        0.1522
      6 C         140.1376  141.9028  163.7729 C.ar    1  UNL1        0.0382
      7 O         141.5527  142.4099  165.8919 O.3     1  UNL1       -0.4723
      8 C         141.8199  142.2091  167.3542 C.3     1  UNL1        0.2293
      9 C         140.9392  141.3004  168.1597 C.3     1  UNL1        0.1691
     10 C         140.9570  140.9100  169.6079 C.3     1  UNL1        0.2216
     11 O         139.8202  139.9609  169.8461 O.3     1  UNL1       -0.4336
     12 C         139.0998  139.7647  168.5452 C.2     1  UNL1        0.4089
     13 O         137.8986  138.8936  168.3251 O.2     1  UNL1       -0.2258
     14 N         139.7913  140.5926  167.5029 N.am    1  UNL1       -0.2164
     15 C         138.1882  141.7975  158.7291 C.ar    1  UNL1        0.1400
     16 C         138.2292  140.4112  159.3007 C.ar    1  UNL1        0.0348
     17 C         138.4964  140.2104  160.7629 C.ar    1  UNL1        0.0044
     18 C         138.7225  141.3959  161.6537 C.ar    1  UNL1        0.0194
     19 C         138.6815  142.7821  161.0823 C.ar    1  UNL1        0.1003
     20 N         138.4143  142.9829  159.6199 N.ar    1  UNL1       -0.2287
     21 O         135.7800  140.4183  157.0122 O.2     1  UNL1       -0.2258
     22 C         136.8141  141.3643  156.4777 C.2     1  UNL1        0.4099
     23 O         136.9228  141.8424  155.0601 O.3     1  UNL1       -0.4336
     24 C         138.0969  142.7719  154.9731 C.3     1  UNL1        0.2197
     25 C         138.7138  142.8682  156.3370 C.3     1  UNL1        0.1491
     26 N         137.9210  141.9982  157.2669 N.am    1  UNL1       -0.2059
     27 C         138.5709  143.4807  153.7390 C.3     1  UNL1        0.1828
     28 O         138.8333  144.9571  153.7761 O.3     1  UNL1       -0.3785
     29 H         137.9995  145.4300  153.9248 H       1  UNL1        0.2106
     30 C         141.9393  141.3852  170.6371 C.3     1  UNL1        0.1828
     31 O         142.0789  140.6494  171.9367 O.3     1  UNL1       -0.3785
     32 H         141.2573  140.7331  172.4456 H       1  UNL1        0.2106
@<TRIPOS>BOND
     1    21    22    2
     2    22    23    1
     3    23    24    1
     4    24    27    1
     5    27    28    1
     6    24    25    1
     7    25    26    1
     8    26    15    1
     9    15    16   ar
    10    16    17   ar
    11    17    18   ar
    12    18     1    1
    13     1     2   ar
    14     2     3   ar
    15     3     4   ar
    16     4     5   ar
    17     5     6   ar
    18     5     7    1
    19     7     8    1
    20     9     8    1
    21     9    10    1
    22    10    30    1
    23    30    31    1
    24    10    11    1
    25    11    12    1
    26    12    13    2
    27    12    14   am
    28    18    19   ar
    29    19    20   ar
    30    26    22   am
    31    20    15   ar
    32     6     1   ar
    33    14     9    1
    34    14     4    1
    35    28    29    1
    36    31    32    1
@<TRIPOS>MOLECULE
*****
 32 36 0 0 0
SMALL
GASTEIGER

@<TRIPOS>ATOM
      1 C         140.2711  143.0691  162.1393 C.ar    1  UNL1        0.0046
      2 C         141.3127  144.0698  161.7348 C.ar    1  UNL1        0.0015
      3 C         141.3622  144.5714  160.3221 C.ar    1  UNL1        0.0181
      4 C         140.3700  144.0723  159.3138 C.ar    1  UNL1        0.0910
      5 C         139.3284  143.0716  159.7183 C.ar    1  UNL1        0.1522
      6 C         139.2790  142.5701  161.1311 C.ar    1  UNL1        0.0382
      7 O         138.3363  142.5725  158.7101 O.3     1  UNL1       -0.4723
      8 C         138.3857  143.0741  157.2973 C.3     1  UNL1        0.2293
      9 C         139.4274  144.0748  156.8928 C.3     1  UNL1        0.1691
     10 C         139.7199  144.7454  155.5833 C.3     1  UNL1        0.2216
     11 O         140.8928  145.6590  155.7823 O.3     1  UNL1       -0.4336
     12 C         141.3252  145.5530  157.2146 C.2     1  UNL1        0.4089
     13 O         142.4635  146.2957  157.8493 O.2     1  UNL1       -0.2258
     14 N         140.4195  144.5739  157.9010 N.am    1  UNL1       -0.2164
     15 C         140.1226  141.5644  166.3778 C.ar    1  UNL1        0.1400
     16 C         140.1136  143.0393  166.1047 C.ar    1  UNL1        0.0348
     17 C         140.1631  143.5409  164.6920 C.ar    1  UNL1        0.0044
     18 C         140.2216  142.5675  163.5522 C.ar    1  UNL1        0.0194
     19 C         140.2306  141.0926  163.8251 C.ar    1  UNL1        0.1003
     20 N         140.1811  140.5910  165.2380 N.ar    1  UNL1       -0.2287
     21 O         138.3618  139.0370  167.4554 O.2     1  UNL1       -0.2258
     22 C         139.2637  139.9011  168.2858 C.2     1  UNL1        0.4099
     23 O         139.5147  139.7552  169.7575 O.3     1  UNL1       -0.4336
     24 C         140.4792  140.8268  170.1717 C.3     1  UNL1        0.2197
     25 C         140.8243  141.6349  168.9561 C.3     1  UNL1        0.1491
     26 N         140.0731  141.0628  167.7905 N.am    1  UNL1       -0.2059
     27 C         141.0060  141.0509  171.5582 C.3     1  UNL1        0.1828
     28 O         142.3890  140.5948  171.9178 O.3     1  UNL1       -0.3785
     29 H         142.4292  139.6262  171.8834 H       1  UNL1        0.2106
     30 C         138.9710  144.5388  154.3002 C.3     1  UNL1        0.1828
     31 O         137.5152  144.8903  154.2165 O.3     1  UNL1       -0.3785
     32 H         137.0068  144.3031  154.7976 H       1  UNL1        0.2106
@<TRIPOS>BOND
     1    21    22    2
     2    22    23    1
     3    23    24    1
     4    24    27    1
     5    27    28    1
     6    24    25    1
     7    25    26    1
     8    26    15    1
     9    15    16   ar
    10    16    17   ar
    11    17    18   ar
    12    18     1    1
    13     1     2   ar
    14     2     3   ar
    15     3     4   ar
    16     4     5   ar
    17     5     6   ar
    18     5     7    1
    19     7     8    1
    20     9     8    1
    21     9    10    1
    22    10    30    1
    23    30    31    1
    24    10    11    1
    25    11    12    1
    26    12    13    2
    27    12    14   am
    28    18    19   ar
    29    19    20   ar
    30    26    22   am
    31    20    15   ar
    32     6     1   ar
    33    14     9    1
    34    14     4    1
    35    28    29    1
    36    31    32    1
@<TRIPOS>MOLECULE
*****
 32 36 0 0 0
SMALL
GASTEIGER

@<TRIPOS>ATOM
      1 C         140.3490  142.5135  163.5176 C.ar    1  UNL1        0.0046
      2 C         139.2684  141.6015  164.0181 C.ar    1  UNL1        0.0015
      3 C         139.3475  141.0353  165.4049 C.ar    1  UNL1        0.0181
      4 C         140.5072  141.3812  166.2911 C.ar    1  UNL1        0.0910
      5 C         141.5878  142.2932  165.7906 C.ar    1  UNL1        0.1522
      6 C         141.5087  142.8594  164.4039 C.ar    1  UNL1        0.0382
      7 O         142.7475  142.6391  166.6769 O.3     1  UNL1       -0.4723
      8 C         142.8266  142.0730  168.0637 C.3     1  UNL1        0.2293
      9 C         141.7460  141.1609  168.5643 C.3     1  UNL1        0.1691
     10 C         141.5545  140.4561  169.8744 C.3     1  UNL1        0.2216
     11 O         140.2764  139.6747  169.7979 O.3     1  UNL1       -0.4336
     12 C         139.6781  139.8965  168.4405 C.2     1  UNL1        0.4089
     13 O         138.3965  139.3038  167.9343 O.2     1  UNL1       -0.2258
     14 N         140.5863  140.8150  167.6780 N.am    1  UNL1       -0.2164
     15 C         140.1117  144.2120  159.3572 C.ar    1  UNL1        0.1400
     16 C         141.2768  144.5494  160.2398 C.ar    1  UNL1        0.0348
     17 C         141.3558  143.9832  161.6265 C.ar    1  UNL1        0.0044
     18 C         140.2699  143.0797  162.1308 C.ar    1  UNL1        0.0194
     19 C         139.1049  142.7423  161.2482 C.ar    1  UNL1        0.1003
     20 N         139.0258  143.3085  159.8614 N.ar    1  UNL1       -0.2287
     21 O         140.3841  142.5239  156.5777 O.2     1  UNL1       -0.2258
     22 C         140.1579  144.0023  156.6928 C.2     1  UNL1        0.4099
     23 O         140.0171  144.9642  155.5506 O.3     1  UNL1       -0.4336
     24 C         139.8049  146.3347  156.1222 C.3     1  UNL1        0.2197
     25 C         139.8145  146.2198  157.6177 C.3     1  UNL1        0.1491
     26 N         140.0327  144.7782  157.9704 N.am    1  UNL1       -0.2059
     27 C         139.6163  147.5983  155.3362 C.3     1  UNL1        0.1828
     28 O         138.4783  148.5203  155.6603 O.3     1  UNL1       -0.3785
     29 H         137.6378  148.0787  155.4618 H       1  UNL1        0.2106
     30 C         142.4788  140.5214  171.0540 C.3     1  UNL1        0.1828
     31 O         143.6223  139.5570  171.1651 O.3     1  UNL1       -0.3785
     32 H         143.2770  138.6578  171.2789 H       1  UNL1        0.2106
@<TRIPOS>BOND
     1    21    22    2
     2    22    23    1
     3    23    24    1
     4    24    27    1
     5    27    28    1
     6    24    25    1
     7    25    26    1
     8    26    15    1
     9    15    16   ar
    10    16    17   ar
    11    17    18   ar
    12    18     1    1
    13     1     2   ar
    14     2     3   ar
    15     3     4   ar
    16     4     5   ar
    17     5     6   ar
    18     5     7    1
    19     7     8    1
    20     9     8    1
    21     9    10    1
    22    10    30    1
    23    30    31    1
    24    10    11    1
    25    11    12    1
    26    12    13    2
    27    12    14   am
    28    18    19   ar
    29    19    20   ar
    30    26    22   am
    31    20    15   ar
    32     6     1   ar
    33    14     9    1
    34    14     4    1
    35    28    29    1
    36    31    32    1
@<TRIPOS>MOLECULE
*****
 32 36 0 0 0
SMALL
GASTEIGER

@<TRIPOS>ATOM
      1 C         139.7633  142.7797  161.8319 C.ar    1  UNL1        0.0046
      2 C         138.7889  142.1238  160.8990 C.ar    1  UNL1        0.0015
      3 C         138.7127  142.5601  159.4659 C.ar    1  UNL1        0.0181
      4 C         139.6110  143.6523  158.9657 C.ar    1  UNL1        0.0910
      5 C         140.5854  144.3082  159.8985 C.ar    1  UNL1        0.1522
      6 C         140.6616  143.8719  161.3316 C.ar    1  UNL1        0.0382
      7 O         141.4837  145.4004  159.3983 O.3     1  UNL1       -0.4723
      8 C         141.4075  145.8367  157.9652 C.3     1  UNL1        0.2293
      9 C         140.4330  145.1808  157.0322 C.3     1  UNL1        0.1691
     10 C         140.1337  145.3977  155.5785 C.3     1  UNL1        0.2216
     11 O         139.0505  144.4396  155.1804 O.3     1  UNL1       -0.4336
     12 C         138.6803  143.6305  156.3879 C.2     1  UNL1        0.4089
     13 O         137.6385  142.5526  156.4416 O.2     1  UNL1       -0.2258
     14 N         139.5348  144.0886  157.5325 N.am    1  UNL1       -0.2164
     15 C         139.9919  141.4710  166.1313 C.ar    1  UNL1        0.1400
     16 C         139.7726  142.9170  165.7981 C.ar    1  UNL1        0.0348
     17 C         139.6964  143.3532  164.3650 C.ar    1  UNL1        0.0044
     18 C         139.8395  142.3435  163.2650 C.ar    1  UNL1        0.0194
     19 C         140.0588  140.8975  163.5982 C.ar    1  UNL1        0.1003
     20 N         140.1350  140.4612  165.0314 N.ar    1  UNL1       -0.2287
     21 O         138.3615  138.9798  167.4674 O.2     1  UNL1       -0.2258
     22 C         139.3187  139.8897  168.1786 C.2     1  UNL1        0.4099
     23 O         139.6945  139.8143  169.6287 O.3     1  UNL1       -0.4336
     24 C         140.6762  140.9128  169.9110 C.3     1  UNL1        0.2197
     25 C         140.9071  141.6671  168.6351 C.3     1  UNL1        0.1491
     26 N         140.0681  141.0348  167.5645 N.am    1  UNL1       -0.2059
     27 C         141.3149  141.2055  171.2362 C.3     1  UNL1        0.1828
     28 O         140.6358  142.1226  172.2098 O.3     1  UNL1       -0.3785
     29 H         140.6062  143.0198  171.8422 H       1  UNL1        0.2106
     30 C         140.8006  146.3972  154.6806 C.3     1  UNL1        0.1828
     31 O         140.5233  147.8614  154.8517 O.3     1  UNL1       -0.3785
     32 H         139.5953  148.0422  154.6349 H       1  UNL1        0.2106
@<TRIPOS>BOND
     1    21    22    2
     2    22    23    1
     3    23    24    1
     4    24    27    1
     5    27    28    1
     6    24    25    1
     7    25    26    1
     8    26    15    1
     9    15    16   ar
    10    16    17   ar
    11    17    18   ar
    12    18     1    1
    13     1     2   ar
    14     2     3   ar
    15     3     4   ar
    16     4     5   ar
    17     5     6   ar
    18     5     7    1
    19     7     8    1
    20     9     8    1
    21     9    10    1
    22    10    30    1
    23    30    31    1
    24    10    11    1
    25    11    12    1
    26    12    13    2
    27    12    14   am
    28    18    19   ar
    29    19    20   ar
    30    26    22   am
    31    20    15   ar
    32     6     1   ar
    33    14     9    1
    34    14     4    1
    35    28    29    1
    36    31    32    1
@<TRIPOS>MOLECULE
*****
 32 36 0 0 0
SMALL
GASTEIGER

@<TRIPOS>ATOM
      1 C         142.1983  139.4998  163.5641 C.ar    1  UNL1        0.0046
      2 C         142.8394  138.6686  164.6356 C.ar    1  UNL1        0.0015
      3 C         142.6584  139.0359  166.0786 C.ar    1  UNL1        0.0181
      4 C         141.8364  140.2343  166.4501 C.ar    1  UNL1        0.0910
      5 C         141.1953  141.0655  165.3787 C.ar    1  UNL1        0.1522
      6 C         141.3762  140.6982  163.9356 C.ar    1  UNL1        0.0382
      7 O         140.3733  142.2639  165.7502 O.3     1  UNL1       -0.4723
      8 C         140.1923  142.6312  167.1932 C.3     1  UNL1        0.2293
      9 C         140.8334  141.8000  168.2648 C.3     1  UNL1        0.1691
     10 C         140.8321  141.9157  169.7603 C.3     1  UNL1        0.2216
     11 O         141.6533  140.7887  170.3130 O.3     1  UNL1       -0.4336
     12 C         142.1622  139.9766  169.1592 C.2     1  UNL1        0.4089
     13 O         143.0261  138.7541  169.2545 O.2     1  UNL1       -0.2258
     14 N         141.6555  140.6016  167.8932 N.am    1  UNL1       -0.2164
     15 C         142.7410  138.3979  159.2349 C.ar    1  UNL1        0.1400
     16 C         141.3841  138.3061  159.8679 C.ar    1  UNL1        0.0348
     17 C         141.2032  138.6734  161.3109 C.ar    1  UNL1        0.0044
     18 C         142.3792  139.1325  162.1210 C.ar    1  UNL1        0.0194
     19 C         143.7360  139.2243  161.4882 C.ar    1  UNL1        0.1003
     20 N         143.9169  138.8570  160.0451 N.ar    1  UNL1       -0.2287
     21 O         143.6251  140.4257  156.8358 O.2     1  UNL1       -0.2258
     22 C         143.3282  138.9627  156.6892 C.2     1  UNL1        0.4099
     23 O         143.3856  138.1750  155.4140 O.3     1  UNL1       -0.4336
     24 C         143.0147  136.7560  155.7286 C.3     1  UNL1        0.2197
     25 C         142.7281  136.6668  157.1982 C.3     1  UNL1        0.1491
     26 N         142.9219  138.0307  157.7919 N.am    1  UNL1       -0.2059
     27 C         142.9430  135.6248  154.7461 C.3     1  UNL1        0.1828
     28 O         142.5729  135.8945  153.3177 O.3     1  UNL1       -0.3785
     29 H         141.6551  136.2053  153.2746 H       1  UNL1        0.2106
     30 C         140.1324  142.9727  170.5622 C.3     1  UNL1        0.1828
     31 O         140.1934  144.4071  170.1277 O.3     1  UNL1       -0.3785
     32 H         141.1062  144.7276  170.1980 H       1  UNL1        0.2106
@<TRIPOS>BOND
     1    21    22    2
     2    22    23    1
     3    23    24    1
     4    24    27    1
     5    27    28    1
     6    24    25    1
     7    25    26    1
     8    26    15    1
     9    15    16   ar
    10    16    17   ar
    11    17    18   ar
    12    18     1    1
    13     1     2   ar
    14     2     3   ar
    15     3     4   ar
    16     4     5   ar
    17     5     6   ar
    18     5     7    1
    19     7     8    1
    20     9     8    1
    21     9    10    1
    22    10    30    1
    23    30    31    1
    24    10    11    1
    25    11    12    1
    26    12    13    2
    27    12    14   am
    28    18    19   ar
    29    19    20   ar
    30    26    22   am
    31    20    15   ar
    32     6     1   ar
    33    14     9    1
    34    14     4    1
    35    28    29    1
    36    31    32    1
@<TRIPOS>MOLECULE
*****
 32 36 0 0 0
SMALL
GASTEIGER

@<TRIPOS>ATOM
      1 C         141.0551  143.2237  161.9512 C.ar    1  UNL1        0.0046
      2 C         140.2013  144.3669  161.4886 C.ar    1  UNL1        0.0015
      3 C         140.3434  144.8912  160.0904 C.ar    1  UNL1        0.0181
      4 C         141.3393  144.2722  159.1549 C.ar    1  UNL1        0.0910
      5 C         142.1930  143.1290  159.6176 C.ar    1  UNL1        0.1522
      6 C         142.0509  142.6047  161.0157 C.ar    1  UNL1        0.0382
      7 O         143.1888  142.5100  158.6821 O.3     1  UNL1       -0.4723
      8 C         143.3309  143.0342  157.2839 C.3     1  UNL1        0.2293
      9 C         142.4772  144.1775  156.8212 C.3     1  UNL1        0.1691
     10 C         142.3941  144.9019  155.5103 C.3     1  UNL1        0.2216
     11 O         141.3470  145.9685  155.6357 O.3     1  UNL1       -0.4336
     12 C         140.7829  145.9034  157.0239 C.2     1  UNL1        0.4089
     13 O         139.7088  146.7896  157.5817 O.2     1  UNL1       -0.2258
     14 N         141.4813  144.7965  157.7567 N.am    1  UNL1       -0.2164
     15 C         140.6288  141.6508  166.1459 C.ar    1  UNL1        0.1400
     16 C         139.8379  142.8485  165.7099 C.ar    1  UNL1        0.0348
     17 C         139.9800  143.3728  164.3118 C.ar    1  UNL1        0.0044
     18 C         140.9130  142.6994  163.3495 C.ar    1  UNL1        0.0194
     19 C         141.7039  141.5017  163.7854 C.ar    1  UNL1        0.1003
     20 N         141.5618  140.9774  165.1836 N.ar    1  UNL1       -0.2287
     21 O         138.6057  139.2781  167.1084 O.2     1  UNL1       -0.2258
     22 C         139.5568  140.0360  167.9865 C.2     1  UNL1        0.4099
     23 O         139.7449  139.8362  169.4611 O.3     1  UNL1       -0.4336
     24 C         140.7912  140.8034  169.9302 C.3     1  UNL1        0.2197
     25 C         141.2496  141.6009  168.7453 C.3     1  UNL1        0.1491
     26 N         140.4867  141.1266  167.5441 N.am    1  UNL1       -0.2059
     27 C         141.2911  140.9478  171.3370 C.3     1  UNL1        0.1828
     28 O         142.0330  142.1856  171.7460 O.3     1  UNL1       -0.3785
     29 H         142.8763  142.2297  171.2687 H       1  UNL1        0.2106
     30 C         143.2143  144.6107  154.2886 C.3     1  UNL1        0.1828
     31 O         144.7105  144.5624  154.3836 O.3     1  UNL1       -0.3785
     32 H         145.0493  145.4452  154.6000 H       1  UNL1        0.2106
@<TRIPOS>BOND
     1    21    22    2
     2    22    23    1
     3    23    24    1
     4    24    27    1
     5    27    28    1
     6    24    25    1
     7    25    26    1
     8    26    15    1
     9    15    16   ar
    10    16    17   ar
    11    17    18   ar
    12    18     1    1
    13     1     2   ar
    14     2     3   ar
    15     3     4   ar
    16     4     5   ar
    17     5     6   ar
    18     5     7    1
    19     7     8    1
    20     9     8    1
    21     9    10    1
    22    10    30    1
    23    30    31    1
    24    10    11    1
    25    11    12    1
    26    12    13    2
    27    12    14   am
    28    18    19   ar
    29    19    20   ar
    30    26    22   am
    31    20    15   ar
    32     6     1   ar
    33    14     9    1
    34    14     4    1
    35    28    29    1
    36    31    32    1
@<TRIPOS>MOLECULE
*****
 32 36 0 0 0
SMALL
GASTEIGER

@<TRIPOS>ATOM
      1 C         142.2194  140.5201  163.2678 C.ar    1  UNL1        0.0046
      2 C         140.9510  139.7969  163.6113 C.ar    1  UNL1        0.0015
      3 C         140.4522  139.7882  165.0259 C.ar    1  UNL1        0.0181
      4 C         141.2219  140.5026  166.0970 C.ar    1  UNL1        0.0910
      5 C         142.4903  141.2257  165.7535 C.ar    1  UNL1        0.1522
      6 C         142.9891  141.2344  164.3389 C.ar    1  UNL1        0.0382
      7 O         143.2600  141.9401  166.8246 O.3     1  UNL1       -0.4723
      8 C         142.7612  141.9314  168.2391 C.3     1  UNL1        0.2293
      9 C         141.4927  141.2082  168.5827 C.3     1  UNL1        0.1691
     10 C         140.7601  141.0271  169.8790 C.3     1  UNL1        0.2216
     11 O         139.5377  140.2008  169.6091 O.3     1  UNL1       -0.4336
     12 C         139.5148  139.8712  168.1460 C.2     1  UNL1        0.4089
     13 O         138.4674  139.0612  167.4410 O.2     1  UNL1       -0.2258
     14 N         140.7230  140.4939  167.5116 N.am    1  UNL1       -0.2164
     15 C         143.7160  140.5464  159.0239 C.ar    1  UNL1        0.1400
     16 C         142.9443  141.7182  159.5544 C.ar    1  UNL1        0.0348
     17 C         142.4455  141.7094  160.9690 C.ar    1  UNL1        0.0044
     18 C         142.7183  140.5288  161.8532 C.ar    1  UNL1        0.0194
     19 C         143.4899  139.3570  161.3227 C.ar    1  UNL1        0.1003
     20 N         143.9888  139.3657  159.9081 N.ar    1  UNL1       -0.2287
     21 O         145.9989  142.5358  157.8074 O.2     1  UNL1       -0.2258
     22 C         145.2641  141.4696  157.0502 C.2     1  UNL1        0.4099
     23 O         145.4497  141.1307  155.6008 O.3     1  UNL1       -0.4336
     24 C         144.5151  140.0067  155.2642 C.3     1  UNL1        0.2197
     25 C         143.7519  139.6511  156.5056 C.3     1  UNL1        0.1491
     26 N         144.2148  140.5551  157.6094 N.am    1  UNL1       -0.2059
     27 C         144.3693  139.3532  153.9220 C.3     1  UNL1        0.1828
     28 O         143.6256  138.0567  153.7958 O.3     1  UNL1       -0.3785
     29 H         144.1102  137.3591  154.2642 H       1  UNL1        0.2106
     30 C         141.1768  141.5760  171.2114 C.3     1  UNL1        0.1828
     31 O         142.1669  140.8281  172.0542 O.3     1  UNL1       -0.3785
     32 H         141.7779  139.9866  172.3398 H       1  UNL1        0.2106
@<TRIPOS>BOND
     1    21    22    2
     2    22    23    1
     3    23    24    1
     4    24    27    1
     5    27    28    1
     6    24    25    1
     7    25    26    1
     8    26    15    1
     9    15    16   ar
    10    16    17   ar
    11    17    18   ar
    12    18     1    1
    13     1     2   ar
    14     2     3   ar
    15     3     4   ar
    16     4     5   ar
    17     5     6   ar
    18     5     7    1
    19     7     8    1
    20     9     8    1
    21     9    10    1
    22    10    30    1
    23    30    31    1
    24    10    11    1
    25    11    12    1
    26    12    13    2
    27    12    14   am
    28    18    19   ar
    29    19    20   ar
    30    26    22   am
    31    20    15   ar
    32     6     1   ar
    33    14     9    1
    34    14     4    1
    35    28    29    1
    36    31    32    1
