@<TRIPOS>MOLECULE
*****
 33 36 0 0 0
SMALL
GASTEIGER

@<TRIPOS>ATOM
      1 C         142.6655  142.0594  165.4283 C.2     1  UNL1        0.0145
      2 C         141.6555  141.1239  166.0239 C.2     1  UNL1       -0.0245
      3 C         141.7698  140.7136  167.4622 C.3     1  UNL1        0.0336
      4 C         141.1352  141.5500  168.5335 C.3     1  UNL1        0.0795
      5 C         140.3402  142.8207  168.4758 C.3     1  UNL1        0.1720
      6 C         139.9846  143.5826  167.2336 C.3     1  UNL1        0.0474
      7 O         139.9632  143.1956  169.8784 O.3     1  UNL1       -0.4506
      8 C         140.5252  142.1567  170.8029 C.2     1  UNL1        0.3414
      9 O         140.3871  142.1381  172.2964 O.2     1  UNL1       -0.2475
     10 C         141.2496  141.1396  169.9717 C.3     1  UNL1        0.1859
     11 O         141.2798  140.8573  171.4446 O.3     1  UNL1       -0.3761
     12 C         141.9986  139.8929  170.3386 C.3     1  UNL1        0.1044
     13 C         142.6332  139.0565  169.2673 C.3     1  UNL1        0.2669
     14 F         143.4000  137.9433  168.6171 F       1  UNL1       -0.2042
     15 F         143.0139  138.2595  170.4797 F       1  UNL1       -0.2042
     16 C         142.5188  139.4668  167.8292 C.3     1  UNL1        0.0656
     17 C         143.1534  138.6304  166.7578 C.3     1  UNL1        0.0060
     18 H         141.7780  140.0410  171.6071 H       1  UNL1        0.2109
     19 C         142.3222  143.2901  161.1134 C.ar    1  UNL1        0.0198
     20 C         141.3914  142.2565  161.6748 C.ar    1  UNL1        0.0031
     21 C         141.5058  141.8463  163.1131 C.ar    1  UNL1        0.0191
     22 C         142.5511  142.4696  163.9900 C.ar    1  UNL1        0.0810
     23 N         143.4819  143.5032  163.4286 N.ar    1  UNL1       -0.2438
     24 C         143.3675  143.9135  161.9903 C.ar    1  UNL1        0.0988
     25 C         140.1605  146.2621  157.4400 C.3     1  UNL1        0.0317
     26 C         141.1270  145.1863  157.8385 C.ar    1  UNL1       -0.0122
     27 C         141.9790  144.5208  156.7987 C.ar    1  UNL1       -0.0036
     28 C         142.9454  143.4450  157.1971 C.ar    1  UNL1       -0.0003
     29 C         143.0598  143.0348  158.6353 C.ar    1  UNL1        0.0007
     30 C         142.2078  143.7003  159.6751 C.ar    1  UNL1        0.0108
     31 C         141.2414  144.7761  159.2767 C.ar    1  UNL1        0.0645
     32 C         140.3894  145.4416  160.3165 C.1     1  UNL1        0.1001
     33 N         139.5374  146.1071  161.3563 N.1     1  UNL1       -0.1908
@<TRIPOS>BOND
     1    25    26    1
     2    26    27   ar
     3    27    28   ar
     4    28    29   ar
     5    29    30   ar
     6    30    19    1
     7    19    20   ar
     8    20    21   ar
     9    21    22   ar
    10    22     1    1
    11     1     2    2
    12     3     2    1
    13     3     4    1
    14     4     5    1
    15     5     6    1
    16     5     7    1
    17     7     8    1
    18     8     9    2
    19     8    10    1
    20    10    11    1
    21    10    12    1
    22    12    13    1
    23    13    14    1
    24    13    15    1
    25    13    16    1
    26    16    17    1
    27    22    23   ar
    28    23    24   ar
    29    30    31   ar
    30    31    32    1
    31    32    33    3
    32    31    26   ar
    33    24    19   ar
    34    16     3    1
    35    10     4    1
    36    11    18    1
@<TRIPOS>MOLECULE
*****
 33 36 0 0 0
SMALL
GASTEIGER

@<TRIPOS>ATOM
      1 C         141.5922  139.4258  165.1956 C.2     1  UNL1        0.0145
      2 C         140.7367  140.5436  165.7137 C.2     1  UNL1       -0.0245
      3 C         140.4058  140.6197  167.1748 C.3     1  UNL1        0.0336
      4 C         141.2953  141.3885  168.1063 C.3     1  UNL1        0.0795
      5 C         142.5561  142.1677  167.8754 C.3     1  UNL1        0.1720
      6 C         143.2473  142.3562  166.5575 C.3     1  UNL1        0.0474
      7 O         143.0044  142.7252  169.1938 O.3     1  UNL1       -0.4506
      8 C         142.0207  142.2906  170.2395 C.2     1  UNL1        0.3414
      9 O         142.0825  142.6237  171.7007 O.2     1  UNL1       -0.2475
     10 C         140.9644  141.4645  169.5674 C.3     1  UNL1        0.1859
     11 O         140.7627  141.6283  171.0447 O.3     1  UNL1       -0.3761
     12 C         139.7440  140.7716  170.0970 C.3     1  UNL1        0.1044
     13 C         138.8545  140.0027  169.1655 C.3     1  UNL1        0.2669
     14 F         137.7123  139.1584  168.6834 F       1  UNL1       -0.2042
     15 F         138.1269  139.7855  170.4591 F       1  UNL1       -0.2042
     16 C         139.1854  139.9268  167.7045 C.3     1  UNL1        0.0656
     17 C         138.2958  139.1579  166.7730 C.3     1  UNL1        0.0060
     18 H         139.9595  141.1567  171.3156 H       1  UNL1        0.2109
     19 C         142.5846  139.1979  160.8123 C.ar    1  UNL1        0.0198
     20 C         143.5396  138.6431  161.8273 C.ar    1  UNL1        0.0031
     21 C         143.2087  138.7191  163.2884 C.ar    1  UNL1        0.0191
     22 C         141.9230  139.3498  163.7345 C.ar    1  UNL1        0.0810
     23 N         140.9680  139.9047  162.7195 N.ar    1  UNL1       -0.2438
     24 C         141.2988  139.8287  161.2584 C.ar    1  UNL1        0.0988
     25 C         144.7321  141.2931  156.5698 C.3     1  UNL1        0.0317
     26 C         143.9891  140.1695  157.2300 C.ar    1  UNL1       -0.0122
     27 C         143.5770  138.9701  156.4291 C.ar    1  UNL1       -0.0036
     28 C         142.8340  137.8466  157.0891 C.ar    1  UNL1       -0.0003
     29 C         142.5032  137.9226  158.5502 C.ar    1  UNL1        0.0007
     30 C         142.9154  139.1220  159.3512 C.ar    1  UNL1        0.0108
     31 C         143.6584  140.2455  158.6911 C.ar    1  UNL1        0.0645
     32 C         144.0705  141.4449  159.4921 C.1     1  UNL1        0.1001
     33 N         144.4827  142.6443  160.2930 N.1     1  UNL1       -0.1908
@<TRIPOS>BOND
     1    25    26    1
     2    26    27   ar
     3    27    28   ar
     4    28    29   ar
     5    29    30   ar
     6    30    19    1
     7    19    20   ar
     8    20    21   ar
     9    21    22   ar
    10    22     1    1
    11     1     2    2
    12     3     2    1
    13     3     4    1
    14     4     5    1
    15     5     6    1
    16     5     7    1
    17     7     8    1
    18     8     9    2
    19     8    10    1
    20    10    11    1
    21    10    12    1
    22    12    13    1
    23    13    14    1
    24    13    15    1
    25    13    16    1
    26    16    17    1
    27    22    23   ar
    28    23    24   ar
    29    30    31   ar
    30    31    32    1
    31    32    33    3
    32    31    26   ar
    33    24    19   ar
    34    16     3    1
    35    10     4    1
    36    11    18    1
@<TRIPOS>MOLECULE
*****
 33 36 0 0 0
SMALL
GASTEIGER

@<TRIPOS>ATOM
      1 C         142.1967  139.6388  164.8497 C.2     1  UNL1        0.0145
      2 C         141.2925  140.7290  165.3432 C.2     1  UNL1       -0.0245
      3 C         141.0871  140.9238  166.8163 C.3     1  UNL1        0.0336
      4 C         139.9213  140.2764  167.5032 C.3     1  UNL1        0.0795
      5 C         138.8172  139.3983  166.9934 C.3     1  UNL1        0.1720
      6 C         138.6331  138.9473  165.5747 C.3     1  UNL1        0.0474
      7 O         137.9295  139.0504  168.1514 O.3     1  UNL1       -0.4506
      8 C         138.4850  139.7135  169.3769 C.2     1  UNL1        0.3414
      9 O         137.9104  139.6330  170.7601 O.2     1  UNL1       -0.2475
     10 C         139.7160  140.4712  168.9762 C.3     1  UNL1        0.1859
     11 O         139.3835  140.5750  170.4352 O.3     1  UNL1       -0.3761
     12 C         140.6765  141.3134  169.7625 C.3     1  UNL1        0.1044
     13 C         141.8423  141.9607  169.0756 C.3     1  UNL1        0.2669
     14 F         143.0870  142.7739  168.8764 F       1  UNL1       -0.2042
     15 F         142.0693  142.4379  170.4795 F       1  UNL1       -0.2042
     16 C         142.0476  141.7660  167.6026 C.3     1  UNL1        0.0656
     17 C         143.2135  142.4134  166.9158 C.3     1  UNL1        0.0060
     18 H         140.0431  141.1313  170.8784 H       1  UNL1        0.2109
     19 C         142.8125  139.0548  160.4304 C.ar    1  UNL1        0.0198
     20 C         141.5453  139.6788  160.9351 C.ar    1  UNL1        0.0031
     21 C         141.3401  139.8735  162.4082 C.ar    1  UNL1        0.0191
     22 C         142.4020  139.4441  163.3766 C.ar    1  UNL1        0.0810
     23 N         143.6692  138.8200  162.8720 N.ar    1  UNL1       -0.2438
     24 C         143.8745  138.6253  161.3989 C.ar    1  UNL1        0.0988
     25 C         144.3876  140.8784  155.8268 C.3     1  UNL1        0.0317
     26 C         143.8053  139.7719  156.6556 C.ar    1  UNL1       -0.0122
     27 C         143.4284  138.4708  156.0113 C.ar    1  UNL1       -0.0036
     28 C         142.8462  137.3644  156.8400 C.ar    1  UNL1       -0.0003
     29 C         142.6409  137.5590  158.3130 C.ar    1  UNL1        0.0007
     30 C         143.0178  138.8601  158.9573 C.ar    1  UNL1        0.0108
     31 C         143.6000  139.9665  158.1287 C.ar    1  UNL1        0.0645
     32 C         143.9769  141.2676  158.7730 C.1     1  UNL1        0.1001
     33 N         144.3538  142.5687  159.4173 N.1     1  UNL1       -0.1908
@<TRIPOS>BOND
     1    25    26    1
     2    26    27   ar
     3    27    28   ar
     4    28    29   ar
     5    29    30   ar
     6    30    19    1
     7    19    20   ar
     8    20    21   ar
     9    21    22   ar
    10    22     1    1
    11     1     2    2
    12     3     2    1
    13     3     4    1
    14     4     5    1
    15     5     6    1
    16     5     7    1
    17     7     8    1
    18     8     9    2
    19     8    10    1
    20    10    11    1
    21    10    12    1
    22    12    13    1
    23    13    14    1
    24    13    15    1
    25    13    16    1
    26    16    17    1
    27    22    23   ar
    28    23    24   ar
    29    30    31   ar
    30    31    32    1
    31    32    33    3
    32    31    26   ar
    33    24    19   ar
    34    16     3    1
    35    10     4    1
    36    11    18    1
@<TRIPOS>MOLECULE
*****
 33 36 0 0 0
SMALL
GASTEIGER

@<TRIPOS>ATOM
      1 C         140.8443  141.4271  164.6470 C.2     1  UNL1        0.0145
      2 C         141.1955  140.4120  165.6940 C.2     1  UNL1       -0.0245
      3 C         140.4735  140.4100  167.0088 C.3     1  UNL1        0.0336
      4 C         141.0187  141.1946  168.1651 C.3     1  UNL1        0.0795
      5 C         142.2371  142.0580  168.3067 C.3     1  UNL1        0.1720
      6 C         143.2472  142.3402  167.2343 C.3     1  UNL1        0.0474
      7 O         142.2681  142.5895  169.7090 O.3     1  UNL1       -0.4506
      8 C         141.0689  142.0547  170.4341 C.2     1  UNL1        0.3414
      9 O         140.7056  142.3331  171.8626 O.2     1  UNL1       -0.2475
     10 C         140.2967  141.1926  169.4799 C.3     1  UNL1        0.1859
     11 O         139.6880  141.2854  170.8477 O.3     1  UNL1       -0.3761
     12 C         139.0294  140.4059  169.6384 C.3     1  UNL1        0.1044
     13 C         138.4841  139.6213  168.4821 C.3     1  UNL1        0.2669
     14 F         137.5788  138.7283  167.6865 F       1  UNL1       -0.2042
     15 F         137.4477  139.3091  169.5205 F       1  UNL1       -0.2042
     16 C         139.2061  139.6234  167.1674 C.3     1  UNL1        0.0656
     17 C         138.6608  138.8387  166.0110 C.3     1  UNL1        0.0060
     18 H         138.8762  140.7552  170.8770 H       1  UNL1        0.2109
     19 C         143.0103  141.4329  160.7026 C.ar    1  UNL1        0.0198
     20 C         141.7200  142.1833  160.8507 C.ar    1  UNL1        0.0031
     21 C         140.9980  142.1813  162.1656 C.ar    1  UNL1        0.0191
     22 C         141.5663  141.4290  163.3322 C.ar    1  UNL1        0.0810
     23 N         142.8567  140.6787  163.1841 N.ar    1  UNL1       -0.2438
     24 C         143.5787  140.6806  161.8693 C.ar    1  UNL1        0.0988
     25 C         143.8801  139.3035  156.0433 C.3     1  UNL1        0.0317
     26 C         144.1672  140.3701  157.0582 C.ar    1  UNL1       -0.0122
     27 C         145.1764  141.4386  156.7583 C.ar    1  UNL1       -0.0036
     28 C         145.4636  142.5052  157.7731 C.ar    1  UNL1       -0.0003
     29 C         144.7415  142.5033  159.0879 C.ar    1  UNL1        0.0007
     30 C         143.7324  141.4348  159.3878 C.ar    1  UNL1        0.0108
     31 C         143.4452  140.3682  158.3730 C.ar    1  UNL1        0.0645
     32 C         142.4360  139.2998  158.6729 C.1     1  UNL1        0.1001
     33 N         141.4268  138.2313  158.9728 N.1     1  UNL1       -0.1908
@<TRIPOS>BOND
     1    25    26    1
     2    26    27   ar
     3    27    28   ar
     4    28    29   ar
     5    29    30   ar
     6    30    19    1
     7    19    20   ar
     8    20    21   ar
     9    21    22   ar
    10    22     1    1
    11     1     2    2
    12     3     2    1
    13     3     4    1
    14     4     5    1
    15     5     6    1
    16     5     7    1
    17     7     8    1
    18     8     9    2
    19     8    10    1
    20    10    11    1
    21    10    12    1
    22    12    13    1
    23    13    14    1
    24    13    15    1
    25    13    16    1
    26    16    17    1
    27    22    23   ar
    28    23    24   ar
    29    30    31   ar
    30    31    32    1
    31    32    33    3
    32    31    26   ar
    33    24    19   ar
    34    16     3    1
    35    10     4    1
    36    11    18    1
@<TRIPOS>MOLECULE
*****
 33 36 0 0 0
SMALL
GASTEIGER

@<TRIPOS>ATOM
      1 C         141.2672  139.8158  164.0575 C.2     1  UNL1        0.0145
      2 C         140.8342  141.0326  164.8201 C.2     1  UNL1       -0.0245
      3 C         141.2443  141.2052  166.2526 C.3     1  UNL1        0.0336
      4 C         140.4074  140.6154  167.3488 C.3     1  UNL1        0.0795
      5 C         139.1362  139.8195  167.3234 C.3     1  UNL1        0.1720
      6 C         138.3742  139.4140  166.0966 C.3     1  UNL1        0.0474
      7 O         138.7608  139.5003  168.7401 O.3     1  UNL1       -0.4506
      8 C         139.7999  140.0989  169.6411 C.2     1  UNL1        0.3414
      9 O         139.8182  140.0218  171.1390 O.2     1  UNL1       -0.2475
     10 C         140.8176  140.7881  168.7813 C.3     1  UNL1        0.1859
     11 O         141.0998  140.8782  170.2517 O.3     1  UNL1       -0.3761
     12 C         142.0648  141.5506  169.1175 C.3     1  UNL1        0.1044
     13 C         142.9017  142.1404  168.0214 C.3     1  UNL1        0.2669
     14 F         144.0156  142.8794  167.3406 F       1  UNL1       -0.2042
     15 F         143.6988  142.5698  169.2174 F       1  UNL1       -0.2042
     16 C         142.4916  141.9678  166.5890 C.3     1  UNL1        0.0656
     17 C         143.3286  142.5576  165.4928 C.3     1  UNL1        0.0060
     18 H         141.9164  141.3821  170.3940 H       1  UNL1        0.2109
     19 C         140.0365  139.2981  159.7600 C.ar    1  UNL1        0.0198
     20 C         139.1454  138.8027  160.8603 C.ar    1  UNL1        0.0031
     21 C         139.5557  138.9753  162.2927 C.ar    1  UNL1        0.0191
     22 C         140.8570  139.6432  162.6250 C.ar    1  UNL1        0.0810
     23 N         141.7481  140.1386  161.5248 N.ar    1  UNL1       -0.2438
     24 C         141.3379  139.9660  160.0923 C.ar    1  UNL1        0.0988
     25 C         137.7611  141.1592  155.4753 C.3     1  UNL1        0.0317
     26 C         138.4886  140.0561  156.1853 C.ar    1  UNL1       -0.0122
     27 C         138.8059  138.7804  155.4627 C.ar    1  UNL1       -0.0036
     28 C         139.5334  137.6773  156.1725 C.ar    1  UNL1       -0.0003
     29 C         139.9436  137.8499  157.6050 C.ar    1  UNL1        0.0007
     30 C         139.6263  139.1255  158.3276 C.ar    1  UNL1        0.0108
     31 C         138.8988  140.2286  157.6177 C.ar    1  UNL1        0.0645
     32 C         138.5815  141.5042  158.3403 C.1     1  UNL1        0.1001
     33 N         138.2642  142.7798  159.0629 N.1     1  UNL1       -0.1908
@<TRIPOS>BOND
     1    25    26    1
     2    26    27   ar
     3    27    28   ar
     4    28    29   ar
     5    29    30   ar
     6    30    19    1
     7    19    20   ar
     8    20    21   ar
     9    21    22   ar
    10    22     1    1
    11     1     2    2
    12     3     2    1
    13     3     4    1
    14     4     5    1
    15     5     6    1
    16     5     7    1
    17     7     8    1
    18     8     9    2
    19     8    10    1
    20    10    11    1
    21    10    12    1
    22    12    13    1
    23    13    14    1
    24    13    15    1
    25    13    16    1
    26    16    17    1
    27    22    23   ar
    28    23    24   ar
    29    30    31   ar
    30    31    32    1
    31    32    33    3
    32    31    26   ar
    33    24    19   ar
    34    16     3    1
    35    10     4    1
    36    11    18    1
@<TRIPOS>MOLECULE
*****
 33 36 0 0 0
SMALL
GASTEIGER

@<TRIPOS>ATOM
      1 C         140.3046  140.6014  164.3459 C.2     1  UNL1        0.0145
      2 C         140.8326  139.8190  165.5116 C.2     1  UNL1       -0.0245
      3 C         140.5783  140.2949  166.9112 C.3     1  UNL1        0.0336
      4 C         141.5520  141.2215  167.5770 C.3     1  UNL1        0.0795
      5 C         142.8397  141.8307  167.1071 C.3     1  UNL1        0.1720
      6 C         143.4744  141.6239  165.7639 C.3     1  UNL1        0.0474
      7 O         143.3811  142.6831  168.2163 O.3     1  UNL1       -0.4506
      8 C         142.4280  142.6006  169.3717 C.2     1  UNL1        0.3414
      9 O         142.5790  143.2990  170.6907 O.2     1  UNL1       -0.2475
     10 C         141.2976  141.6973  168.9766 C.3     1  UNL1        0.1859
     11 O         141.1775  142.2537  170.3644 O.3     1  UNL1       -0.3761
     12 C         140.0694  141.2466  169.7104 C.3     1  UNL1        0.1044
     13 C         139.0957  140.3200  169.0446 C.3     1  UNL1        0.2669
     14 F         137.8879  139.4543  168.8403 F       1  UNL1       -0.2042
     15 F         138.4218  140.4952  170.3733 F       1  UNL1       -0.2042
     16 C         139.3501  139.8442  167.6451 C.3     1  UNL1        0.0656
     17 C         138.3763  138.9176  166.9793 C.3     1  UNL1        0.0060
     18 H         140.3645  141.9218  170.7766 H       1  UNL1        0.2109
     19 C         141.0678  139.1735  160.1471 C.ar    1  UNL1        0.0198
     20 C         141.4921  140.5519  160.5593 C.ar    1  UNL1        0.0031
     21 C         141.2377  141.0278  161.9589 C.ar    1  UNL1        0.0191
     22 C         140.5590  140.1254  162.9463 C.ar    1  UNL1        0.0810
     23 N         140.1346  138.7470  162.5341 N.ar    1  UNL1       -0.2438
     24 C         140.3890  138.2710  161.1345 C.ar    1  UNL1        0.0988
     25 C         139.5243  138.6857  155.2096 C.3     1  UNL1        0.0317
     26 C         140.5504  138.4536  156.2789 C.ar    1  UNL1       -0.0122
     27 C         141.8309  137.7457  155.9485 C.ar    1  UNL1       -0.0036
     28 C         142.8570  137.5136  157.0177 C.ar    1  UNL1       -0.0003
     29 C         142.6027  137.9896  158.4172 C.ar    1  UNL1        0.0007
     30 C         141.3222  138.6976  158.7476 C.ar    1  UNL1        0.0108
     31 C         140.2960  138.9296  157.6784 C.ar    1  UNL1        0.0645
     32 C         139.0156  139.6376  158.0087 C.1     1  UNL1        0.1001
     33 N         137.7351  140.3456  158.3391 N.1     1  UNL1       -0.1908
@<TRIPOS>BOND
     1    25    26    1
     2    26    27   ar
     3    27    28   ar
     4    28    29   ar
     5    29    30   ar
     6    30    19    1
     7    19    20   ar
     8    20    21   ar
     9    21    22   ar
    10    22     1    1
    11     1     2    2
    12     3     2    1
    13     3     4    1
    14     4     5    1
    15     5     6    1
    16     5     7    1
    17     7     8    1
    18     8     9    2
    19     8    10    1
    20    10    11    1
    21    10    12    1
    22    12    13    1
    23    13    14    1
    24    13    15    1
    25    13    16    1
    26    16    17    1
    27    22    23   ar
    28    23    24   ar
    29    30    31   ar
    30    31    32    1
    31    32    33    3
    32    31    26   ar
    33    24    19   ar
    34    16     3    1
    35    10     4    1
    36    11    18    1
@<TRIPOS>MOLECULE
*****
 33 36 0 0 0
SMALL
GASTEIGER

@<TRIPOS>ATOM
      1 C         140.7733  142.0948  164.9521 C.2     1  UNL1        0.0145
      2 C         141.0515  140.8714  165.7742 C.2     1  UNL1       -0.0245
      3 C         140.5244  140.7734  167.1751 C.3     1  UNL1        0.0336
      4 C         141.2666  141.4263  168.3033 C.3     1  UNL1        0.0795
      5 C         142.5341  142.2276  168.3400 C.3     1  UNL1        0.1720
      6 C         143.3944  142.5713  167.1603 C.3     1  UNL1        0.0474
      7 O         142.7903  142.6247  169.7636 O.3     1  UNL1       -0.4506
      8 C         141.6811  142.0689  170.6067 C.2     1  UNL1        0.3414
      9 O         141.5386  142.2261  172.0916 O.2     1  UNL1       -0.2475
     10 C         140.7394  141.3282  169.7041 C.3     1  UNL1        0.1859
     11 O         140.3364  141.3154  171.1489 O.3     1  UNL1       -0.3761
     12 C         139.4699  140.5772  169.9769 C.3     1  UNL1        0.1044
     13 C         138.7277  139.9242  168.8487 C.3     1  UNL1        0.2669
     14 F         137.6754  139.1430  168.1191 F       1  UNL1       -0.2042
     15 F         137.8350  139.5548  169.9962 F       1  UNL1       -0.2042
     16 C         139.2548  140.0223  167.4479 C.3     1  UNL1        0.0656
     17 C         138.5125  139.3693  166.3197 C.3     1  UNL1        0.0060
     18 H         139.5118  140.8149  171.2502 H       1  UNL1        0.2109
     19 C         142.3550  142.3887  160.7494 C.ar    1  UNL1        0.0198
     20 C         142.9453  143.2401  161.8342 C.ar    1  UNL1        0.0031
     21 C         142.4180  143.1421  163.2351 C.ar    1  UNL1        0.0191
     22 C         141.3005  142.1927  163.5512 C.ar    1  UNL1        0.0810
     23 N         140.7103  141.3413  162.4665 N.ar    1  UNL1       -0.2438
     24 C         141.2375  141.4393  161.0656 C.ar    1  UNL1        0.0988
     25 C         142.2258  144.5698  156.0350 C.3     1  UNL1        0.0317
     26 C         142.8176  143.5772  156.9914 C.ar    1  UNL1       -0.0122
     27 C         143.9365  142.6826  156.5468 C.ar    1  UNL1       -0.0036
     28 C         144.5284  141.6900  157.5031 C.ar    1  UNL1       -0.0003
     29 C         144.0012  141.5921  158.9040 C.ar    1  UNL1        0.0007
     30 C         142.8822  142.4867  159.3485 C.ar    1  UNL1        0.0108
     31 C         142.2904  143.4792  158.3923 C.ar    1  UNL1        0.0645
     32 C         141.1714  144.3738  158.8368 C.1     1  UNL1        0.1001
     33 N         140.0525  145.2684  159.2813 N.1     1  UNL1       -0.1908
@<TRIPOS>BOND
     1    25    26    1
     2    26    27   ar
     3    27    28   ar
     4    28    29   ar
     5    29    30   ar
     6    30    19    1
     7    19    20   ar
     8    20    21   ar
     9    21    22   ar
    10    22     1    1
    11     1     2    2
    12     3     2    1
    13     3     4    1
    14     4     5    1
    15     5     6    1
    16     5     7    1
    17     7     8    1
    18     8     9    2
    19     8    10    1
    20    10    11    1
    21    10    12    1
    22    12    13    1
    23    13    14    1
    24    13    15    1
    25    13    16    1
    26    16    17    1
    27    22    23   ar
    28    23    24   ar
    29    30    31   ar
    30    31    32    1
    31    32    33    3
    32    31    26   ar
    33    24    19   ar
    34    16     3    1
    35    10     4    1
    36    11    18    1
@<TRIPOS>MOLECULE
*****
 33 36 0 0 0
SMALL
GASTEIGER

@<TRIPOS>ATOM
      1 C         142.6240  142.1353  165.4239 C.2     1  UNL1        0.0145
      2 C         141.6037  141.2139  166.0236 C.2     1  UNL1       -0.0245
      3 C         141.7350  140.7779  167.4529 C.3     1  UNL1        0.0336
      4 C         141.1112  141.5936  168.5463 C.3     1  UNL1        0.0795
      5 C         140.3134  142.8637  168.5205 C.3     1  UNL1        0.1720
      6 C         139.9425  143.6472  167.2964 C.3     1  UNL1        0.0474
      7 O         139.9517  143.2125  169.9338 O.3     1  UNL1       -0.4506
      8 C         140.5259  142.1581  170.8330 C.2     1  UNL1        0.3414
      9 O         140.4047  142.1124  172.3274 O.2     1  UNL1       -0.2475
     10 C         141.2425  141.1576  169.9755 C.3     1  UNL1        0.1859
     11 O         141.2898  140.8488  171.4425 O.3     1  UNL1       -0.3761
     12 C         141.9976  139.9058  170.3113 C.3     1  UNL1        0.1044
     13 C         142.6214  139.0901  169.2180 C.3     1  UNL1        0.2669
     14 F         143.3827  137.9902  168.5392 F       1  UNL1       -0.2042
     15 F         143.0171  138.2721  170.4114 F       1  UNL1       -0.2042
     16 C         142.4901  139.5261  167.7889 C.3     1  UNL1        0.0656
     17 C         143.1140  138.7103  166.6955 C.3     1  UNL1        0.0060
     18 H         141.7912  140.0306  171.5847 H       1  UNL1        0.2109
     19 C         142.2299  143.4430  161.1361 C.ar    1  UNL1        0.0198
     20 C         141.1764  142.5727  161.7546 C.ar    1  UNL1        0.0031
     21 C         141.3078  142.1368  163.1839 C.ar    1  UNL1        0.0191
     22 C         142.4927  142.5712  163.9946 C.ar    1  UNL1        0.0810
     23 N         143.5462  143.4416  163.3761 N.ar    1  UNL1       -0.2438
     24 C         143.4148  143.8775  161.9469 C.ar    1  UNL1        0.0988
     25 C         143.0211  142.5719  156.0749 C.3     1  UNL1        0.0317
     26 C         142.4941  143.4434  157.1763 C.ar    1  UNL1       -0.0122
     27 C         141.8358  144.7507  156.8484 C.ar    1  UNL1       -0.0036
     28 C         141.3089  145.6222  157.9497 C.ar    1  UNL1       -0.0003
     29 C         141.4403  145.1863  159.3789 C.ar    1  UNL1        0.0007
     30 C         142.0985  143.8789  159.7068 C.ar    1  UNL1        0.0108
     31 C         142.6255  143.0075  158.6056 C.ar    1  UNL1        0.0645
     32 C         143.2837  141.7001  158.9335 C.1     1  UNL1        0.1001
     33 N         143.9420  140.3928  159.2614 N.1     1  UNL1       -0.1908
@<TRIPOS>BOND
     1    25    26    1
     2    26    27   ar
     3    27    28   ar
     4    28    29   ar
     5    29    30   ar
     6    30    19    1
     7    19    20   ar
     8    20    21   ar
     9    21    22   ar
    10    22     1    1
    11     1     2    2
    12     3     2    1
    13     3     4    1
    14     4     5    1
    15     5     6    1
    16     5     7    1
    17     7     8    1
    18     8     9    2
    19     8    10    1
    20    10    11    1
    21    10    12    1
    22    12    13    1
    23    13    14    1
    24    13    15    1
    25    13    16    1
    26    16    17    1
    27    22    23   ar
    28    23    24   ar
    29    30    31   ar
    30    31    32    1
    31    32    33    3
    32    31    26   ar
    33    24    19   ar
    34    16     3    1
    35    10     4    1
    36    11    18    1
@<TRIPOS>MOLECULE
*****
 33 36 0 0 0
SMALL
GASTEIGER

@<TRIPOS>ATOM
      1 C         140.3211  142.4202  164.4522 C.2     1  UNL1        0.0145
      2 C         141.0372  141.2793  165.1122 C.2     1  UNL1       -0.0245
      3 C         141.4234  141.3725  166.5587 C.3     1  UNL1        0.0336
      4 C         140.5549  140.7458  167.6088 C.3     1  UNL1        0.0795
      5 C         139.2695  139.9776  167.5209 C.3     1  UNL1        0.1720
      6 C         138.5233  139.6487  166.2619 C.3     1  UNL1        0.0474
      7 O         138.8615  139.5961  168.9130 O.3     1  UNL1       -0.4506
      8 C         139.8946  140.1284  169.8612 C.2     1  UNL1        0.3414
      9 O         139.8831  139.9768  171.3535 O.2     1  UNL1       -0.2475
     10 C         140.9412  140.8390  169.0552 C.3     1  UNL1        0.1859
     11 O         141.1972  140.8505  170.5332 O.3     1  UNL1       -0.3761
     12 C         142.1961  141.5589  169.4515 C.3     1  UNL1        0.1044
     13 C         143.0646  142.1856  168.4013 C.3     1  UNL1        0.2669
     14 F         144.2049  142.9351  167.7784 F       1  UNL1       -0.2042
     15 F         143.8470  142.5391  169.6314 F       1  UNL1       -0.2042
     16 C         142.6784  142.0924  166.9550 C.3     1  UNL1        0.0656
     17 C         143.5470  142.7192  165.9048 C.3     1  UNL1        0.0060
     18 H         142.0204  141.3303  170.7150 H       1  UNL1        0.2109
     19 C         139.1626  142.1404  160.1128 C.ar    1  UNL1        0.0198
     20 C         140.5289  141.7059  160.5538 C.ar    1  UNL1        0.0031
     21 C         140.9150  141.7992  162.0003 C.ar    1  UNL1        0.0191
     22 C         139.9349  142.3269  163.0058 C.ar    1  UNL1        0.0810
     23 N         138.5686  142.7613  162.5648 N.ar    1  UNL1       -0.2438
     24 C         138.1824  142.6681  161.1183 C.ar    1  UNL1        0.0988
     25 C         139.1066  144.1711  155.3302 C.3     1  UNL1        0.0317
     26 C         138.7484  143.0625  156.2752 C.ar    1  UNL1       -0.0122
     27 C         138.0040  141.8607  155.7736 C.ar    1  UNL1       -0.0036
     28 C         137.6458  140.7521  156.7184 C.ar    1  UNL1       -0.0003
     29 C         138.0320  140.8453  158.1648 C.ar    1  UNL1        0.0007
     30 C         138.7764  142.0471  158.6664 C.ar    1  UNL1        0.0108
     31 C         139.1346  143.1557  157.7216 C.ar    1  UNL1        0.0645
     32 C         139.8789  144.3575  158.2232 C.1     1  UNL1        0.1001
     33 N         140.6233  145.5593  158.7247 N.1     1  UNL1       -0.1908
@<TRIPOS>BOND
     1    25    26    1
     2    26    27   ar
     3    27    28   ar
     4    28    29   ar
     5    29    30   ar
     6    30    19    1
     7    19    20   ar
     8    20    21   ar
     9    21    22   ar
    10    22     1    1
    11     1     2    2
    12     3     2    1
    13     3     4    1
    14     4     5    1
    15     5     6    1
    16     5     7    1
    17     7     8    1
    18     8     9    2
    19     8    10    1
    20    10    11    1
    21    10    12    1
    22    12    13    1
    23    13    14    1
    24    13    15    1
    25    13    16    1
    26    16    17    1
    27    22    23   ar
    28    23    24   ar
    29    30    31   ar
    30    31    32    1
    31    32    33    3
    32    31    26   ar
    33    24    19   ar
    34    16     3    1
    35    10     4    1
    36    11    18    1
