@<TRIPOS>MOLECULE
*****
 43 47 0 0 0
SMALL
GASTEIGER

@<TRIPOS>ATOM
      1 C         139.8023  141.2580  161.5865 C.3     1  UNL1        0.0603
      2 C         140.2036  139.8929  162.0615 C.3     1  UNL1        0.0290
      3 C         140.3567  139.6246  163.5294 C.3     1  UNL1        0.0926
      4 N         140.1086  140.7213  164.5221 N.pl3   1  UNL1       -0.2931
      5 C         139.7072  142.0864  164.0471 C.3     1  UNL1        0.0926
      6 C         139.5541  142.3546  162.5794 C.3     1  UNL1        0.0290
      7 C         140.2617  140.4529  165.9900 C.ar    1  UNL1        0.1361
      8 N         139.0571  140.1287  166.8228 N.ar    1  UNL1       -0.2089
      9 C         139.2102  139.8604  168.2907 C.ar    1  UNL1        0.2012
     10 N         140.5681  139.9163  168.9257 N.ar    1  UNL1       -0.2094
     11 C         141.7728  140.2405  168.0928 C.ar    1  UNL1        0.1298
     12 N         143.1306  140.2963  168.7278 N.pl3   1  UNL1       -0.3425
     13 C         141.6196  140.5088  166.6250 C.ar    1  UNL1        0.0628
     14 H         143.2311  140.1202  169.6912 H       1  UNL1        0.1437
     15 H         143.9213  140.5091  168.1812 H       1  UNL1        0.1437
     16 C         142.8243  140.8330  165.7921 C.ar    1  UNL1        0.0055
     17 C         143.2341  142.2618  165.5904 C.ar    1  UNL1        0.0025
     18 C         144.4388  142.5860  164.7575 C.ar    1  UNL1        0.0296
     19 C         145.2336  141.4815  164.1264 C.ar    1  UNL1        0.1401
     20 F         146.4382  141.8057  163.2936 F       1  UNL1       -0.2042
     21 C         144.8237  140.0527  164.3281 C.ar    1  UNL1        0.0296
     22 C         143.6191  139.7285  165.1610 C.ar    1  UNL1        0.0025
     23 N         140.7551  141.8690  159.1649 N.ar    1  UNL1       -0.3123
     24 C         140.1526  142.0536  157.8037 C.ar    1  UNL1        0.0961
     25 C         138.6744  141.8249  157.9161 C.ar    1  UNL1        0.0997
     26 N         138.3632  141.4990  159.3468 N.ar    1  UNL1       -0.2309
     27 C         139.6491  141.5263  160.1187 C.ar    1  UNL1        0.1200
     28 C         137.6816  141.9076  156.7947 C.ar    1  UNL1        0.0193
     29 C         137.8732  142.9104  155.6958 C.ar    1  UNL1        0.0038
     30 C         136.8805  142.9931  154.5744 C.ar    1  UNL1        0.0296
     31 C         135.6961  142.0729  154.5519 C.ar    1  UNL1        0.1440
     32 F         134.7033  142.1556  153.4304 F       1  UNL1       -0.2042
     33 C         135.5045  141.0700  155.6507 C.ar    1  UNL1        0.0988
     34 C         136.4972  140.9874  156.7721 C.ar    1  UNL1        0.0077
     35 C         134.3201  140.1498  155.6282 C.3     1  UNL1        0.4207
     36 F         133.1358  139.2296  155.6056 F       1  UNL1       -0.1658
     37 F         133.4387  141.2730  156.0879 F       1  UNL1       -0.1658
     38 F         135.2016  139.0266  155.1684 F       1  UNL1       -0.1658
     39 C         142.2082  142.0036  159.5116 C.3     1  UNL1        0.1245
     40 C         142.8052  143.3628  159.7268 C.3     1  UNL1        0.0970
     41 C         141.0611  145.2411  160.1509 C.3     1  UNL1        0.0897
     42 N         142.1427  144.3340  160.6583 N.3     1  UNL1       -0.2687
     43 C         142.5617  144.3982  162.0971 C.3     1  UNL1        0.0897
@<TRIPOS>BOND
     1    41    42    1
     2    42    43    1
     3    42    40    1
     4    40    39    1
     5    39    23    1
     6    23    24   ar
     7    24    25   ar
     8    25    28    1
     9    28    29   ar
    10    29    30   ar
    11    30    31   ar
    12    31    32    1
    13    31    33   ar
    14    33    35    1
    15    35    36    1
    16    35    37    1
    17    35    38    1
    18    33    34   ar
    19    25    26   ar
    20    26    27   ar
    21    27     1    1
    22     1     2    1
    23     2     3    1
    24     3     4    1
    25     4     7    1
    26     7     8   ar
    27     8     9   ar
    28     9    10   ar
    29    10    11   ar
    30    11    12    1
    31    11    13   ar
    32    13    16    1
    33    16    17   ar
    34    17    18   ar
    35    18    19   ar
    36    19    20    1
    37    19    21   ar
    38    21    22   ar
    39     4     5    1
    40     5     6    1
    41    27    23   ar
    42     6     1    1
    43    34    28   ar
    44    13     7   ar
    45    22    16   ar
    46    12    14    1
    47    12    15    1
@<TRIPOS>MOLECULE
*****
 43 47 0 0 0
SMALL
GASTEIGER

@<TRIPOS>ATOM
      1 C         142.6480  142.9817  163.1471 C.3     1  UNL1        0.0603
      2 C         143.9099  142.3765  163.6866 C.3     1  UNL1        0.0290
      3 C         144.0052  142.0102  165.1381 C.3     1  UNL1        0.0926
      4 N         142.8386  142.2492  166.0500 N.pl3   1  UNL1       -0.2931
      5 C         141.5765  142.8545  165.5105 C.3     1  UNL1        0.0926
      6 C         141.4813  143.2207  164.0591 C.3     1  UNL1        0.0290
      7 C         142.9338  141.8829  167.5015 C.ar    1  UNL1        0.1361
      8 N         143.7853  142.7004  168.4270 N.ar    1  UNL1       -0.2089
      9 C         143.8806  142.3341  169.8785 C.ar    1  UNL1        0.2012
     10 N         143.1243  141.1502  170.4044 N.ar    1  UNL1       -0.2094
     11 C         142.2728  140.3327  169.4790 C.ar    1  UNL1        0.1298
     12 N         141.5166  139.1489  170.0050 N.pl3   1  UNL1       -0.3425
     13 C         142.1775  140.6990  168.0275 C.ar    1  UNL1        0.0628
     14 H         141.5791  138.9085  170.9576 H       1  UNL1        0.1437
     15 H         140.9577  138.6123  169.3976 H       1  UNL1        0.1437
     16 C         141.3260  139.8815  167.1020 C.ar    1  UNL1        0.0055
     17 C         141.9692  138.9549  166.1132 C.ar    1  UNL1        0.0025
     18 C         141.1177  138.1374  165.1877 C.ar    1  UNL1        0.0296
     19 C         139.6230  138.2464  165.2510 C.ar    1  UNL1        0.1401
     20 F         138.7715  137.4289  164.3255 F       1  UNL1       -0.2042
     21 C         138.9798  139.1730  166.2399 C.ar    1  UNL1        0.0296
     22 C         139.8313  139.9905  167.1653 C.ar    1  UNL1        0.0025
     23 N         141.7259  144.4590  161.1191 N.ar    1  UNL1       -0.3123
     24 C         141.9297  144.4652  159.6331 C.ar    1  UNL1        0.0961
     25 C         142.8824  143.3581  159.2911 C.ar    1  UNL1        0.0997
     26 N         143.2674  142.6677  160.5659 N.ar    1  UNL1       -0.2309
     27 C         142.5527  143.3480  161.6957 C.ar    1  UNL1        0.1200
     28 C         143.3653  143.0038  157.9159 C.ar    1  UNL1        0.0193
     29 C         142.4258  143.0777  156.7489 C.ar    1  UNL1        0.0038
     30 C         142.9087  142.7233  155.3737 C.ar    1  UNL1        0.0296
     31 C         144.3311  142.2951  155.1655 C.ar    1  UNL1        0.1440
     32 F         144.8140  141.9407  153.7902 F       1  UNL1       -0.2042
     33 C         145.2706  142.2211  156.3324 C.ar    1  UNL1        0.0988
     34 C         144.7877  142.5755  157.7076 C.ar    1  UNL1        0.0077
     35 C         146.6930  141.7928  156.1242 C.3     1  UNL1        0.4207
     36 F         148.1154  141.3646  155.9160 F       1  UNL1       -0.1658
     37 F         146.2289  140.3992  155.8203 F       1  UNL1       -0.1658
     38 F         147.1571  143.1865  156.4281 F       1  UNL1       -0.1658
     39 C         140.8494  145.3986  161.8928 C.3     1  UNL1        0.1245
     40 C         139.3630  145.3746  161.6921 C.3     1  UNL1        0.0970
     41 C         138.5452  142.9543  161.2193 C.3     1  UNL1        0.0897
     42 N         138.5705  144.1682  162.1002 N.3     1  UNL1       -0.2687
     43 C         137.8034  144.1756  163.3891 C.3     1  UNL1        0.0897
@<TRIPOS>BOND
     1    41    42    1
     2    42    43    1
     3    42    40    1
     4    40    39    1
     5    39    23    1
     6    23    24   ar
     7    24    25   ar
     8    25    28    1
     9    28    29   ar
    10    29    30   ar
    11    30    31   ar
    12    31    32    1
    13    31    33   ar
    14    33    35    1
    15    35    36    1
    16    35    37    1
    17    35    38    1
    18    33    34   ar
    19    25    26   ar
    20    26    27   ar
    21    27     1    1
    22     1     2    1
    23     2     3    1
    24     3     4    1
    25     4     7    1
    26     7     8   ar
    27     8     9   ar
    28     9    10   ar
    29    10    11   ar
    30    11    12    1
    31    11    13   ar
    32    13    16    1
    33    16    17   ar
    34    17    18   ar
    35    18    19   ar
    36    19    20    1
    37    19    21   ar
    38    21    22   ar
    39     4     5    1
    40     5     6    1
    41    27    23   ar
    42     6     1    1
    43    34    28   ar
    44    13     7   ar
    45    22    16   ar
    46    12    14    1
    47    12    15    1
@<TRIPOS>MOLECULE
*****
 43 47 0 0 0
SMALL
GASTEIGER

@<TRIPOS>ATOM
      1 C         141.8109  140.0618  161.5751 C.3     1  UNL1        0.0603
      2 C         140.7181  139.6009  160.6567 C.3     1  UNL1        0.0290
      3 C         141.0567  138.8273  159.4170 C.3     1  UNL1        0.0926
      4 N         142.4881  138.5146  159.0957 N.pl3   1  UNL1       -0.2931
      5 C         143.5809  138.9755  160.0141 C.3     1  UNL1        0.0926
      6 C         143.2423  139.7491  161.2537 C.3     1  UNL1        0.0290
      7 C         142.8267  137.7411  157.8560 C.ar    1  UNL1        0.1361
      8 N         142.8912  136.2431  157.9008 N.ar    1  UNL1       -0.2089
      9 C         143.2298  135.4695  156.6611 C.ar    1  UNL1        0.2012
     10 N         143.5039  136.1940  155.3764 N.ar    1  UNL1       -0.2094
     11 C         143.4394  137.6919  155.3316 C.ar    1  UNL1        0.1298
     12 N         143.7135  138.4162  154.0470 N.pl3   1  UNL1       -0.3425
     13 C         143.1008  138.4655  156.5713 C.ar    1  UNL1        0.0628
     14 H         143.9357  137.9085  153.2333 H       1  UNL1        0.1437
     15 H         143.6711  139.3993  154.0175 H       1  UNL1        0.1437
     16 C         143.0362  139.9634  156.5264 C.ar    1  UNL1        0.0055
     17 C         144.2652  140.7758  156.8085 C.ar    1  UNL1        0.0025
     18 C         144.2007  142.2737  156.7636 C.ar    1  UNL1        0.0296
     19 C         142.9072  142.9592  156.4367 C.ar    1  UNL1        0.1401
     20 F         142.8426  144.4572  156.3918 F       1  UNL1       -0.2042
     21 C         141.6782  142.1468  156.1547 C.ar    1  UNL1        0.0296
     22 C         141.7427  140.6489  156.1995 C.ar    1  UNL1        0.0025
     23 N         141.1163  142.2913  162.8759 N.ar    1  UNL1       -0.3123
     24 C         140.8542  142.6446  164.3099 C.ar    1  UNL1        0.0961
     25 C         141.0482  141.4071  165.1351 C.ar    1  UNL1        0.0997
     26 N         141.4301  140.2889  164.2111 N.ar    1  UNL1       -0.2309
     27 C         141.4722  140.8354  162.8148 C.ar    1  UNL1        0.1200
     28 C         140.8882  141.3055  166.6232 C.ar    1  UNL1        0.0193
     29 C         139.8817  140.3587  167.2064 C.ar    1  UNL1        0.0038
     30 C         139.7218  140.2572  168.6944 C.ar    1  UNL1        0.0296
     31 C         140.5684  141.1025  169.5991 C.ar    1  UNL1        0.1440
     32 F         140.4085  141.0010  171.0871 F       1  UNL1       -0.2042
     33 C         141.5750  142.0494  169.0158 C.ar    1  UNL1        0.0988
     34 C         141.7349  142.1509  167.5279 C.ar    1  UNL1        0.0077
     35 C         142.4216  142.8948  169.9206 C.3     1  UNL1        0.4207
     36 F         143.2683  143.7402  170.8253 F       1  UNL1       -0.1658
     37 F         141.3279  143.9192  169.9869 F       1  UNL1       -0.1658
     38 F         143.5154  141.8704  169.8542 F       1  UNL1       -0.1658
     39 C         141.0365  143.2292  161.7080 C.3     1  UNL1        0.1245
     40 C         142.0372  144.3376  161.5664 C.3     1  UNL1        0.0970
     41 C         143.7200  145.0650  163.4073 C.3     1  UNL1        0.0897
     42 N         143.3845  144.2190  162.2150 N.3     1  UNL1       -0.2687
     43 C         144.3963  143.2543  161.6712 C.3     1  UNL1        0.0897
@<TRIPOS>BOND
     1    41    42    1
     2    42    43    1
     3    42    40    1
     4    40    39    1
     5    39    23    1
     6    23    24   ar
     7    24    25   ar
     8    25    28    1
     9    28    29   ar
    10    29    30   ar
    11    30    31   ar
    12    31    32    1
    13    31    33   ar
    14    33    35    1
    15    35    36    1
    16    35    37    1
    17    35    38    1
    18    33    34   ar
    19    25    26   ar
    20    26    27   ar
    21    27     1    1
    22     1     2    1
    23     2     3    1
    24     3     4    1
    25     4     7    1
    26     7     8   ar
    27     8     9   ar
    28     9    10   ar
    29    10    11   ar
    30    11    12    1
    31    11    13   ar
    32    13    16    1
    33    16    17   ar
    34    17    18   ar
    35    18    19   ar
    36    19    20    1
    37    19    21   ar
    38    21    22   ar
    39     4     5    1
    40     5     6    1
    41    27    23   ar
    42     6     1    1
    43    34    28   ar
    44    13     7   ar
    45    22    16   ar
    46    12    14    1
    47    12    15    1
@<TRIPOS>MOLECULE
*****
 43 47 0 0 0
SMALL
GASTEIGER

@<TRIPOS>ATOM
      1 C         142.7778  139.0228  162.0147 C.3     1  UNL1        0.0603
      2 C         141.5132  138.9629  162.8192 C.3     1  UNL1        0.0290
      3 C         141.5530  139.2081  164.2985 C.3     1  UNL1        0.0926
      4 N         142.8574  139.5132  164.9732 N.pl3   1  UNL1       -0.2931
      5 C         144.1221  139.5731  164.1687 C.3     1  UNL1        0.0926
      6 C         144.0822  139.3279  162.6895 C.3     1  UNL1        0.0290
      7 C         142.8973  139.7584  166.4525 C.ar    1  UNL1        0.1361
      8 N         143.0336  138.6041  167.4006 N.ar    1  UNL1       -0.2089
      9 C         143.0734  138.8493  168.8800 C.ar    1  UNL1        0.2012
     10 N         142.9770  140.2489  169.4111 N.ar    1  UNL1       -0.2094
     11 C         142.8407  141.4032  168.4629 C.ar    1  UNL1        0.1298
     12 N         142.7442  142.8027  168.9941 N.pl3   1  UNL1       -0.3425
     13 C         142.8008  141.1580  166.9836 C.ar    1  UNL1        0.0628
     14 H         142.7704  142.9636  169.9650 H       1  UNL1        0.1437
     15 H         142.6548  143.5603  168.3718 H       1  UNL1        0.1437
     16 C         142.6646  142.3123  166.0355 C.ar    1  UNL1        0.0055
     17 C         143.8891  143.0125  165.5255 C.ar    1  UNL1        0.0025
     18 C         143.7528  144.1668  164.5773 C.ar    1  UNL1        0.0296
     19 C         142.3920  144.6208  164.1392 C.ar    1  UNL1        0.1401
     20 F         142.2557  145.7751  163.1910 F       1  UNL1       -0.2042
     21 C         141.1674  143.9206  164.6492 C.ar    1  UNL1        0.0296
     22 C         141.3037  142.7663  165.5973 C.ar    1  UNL1        0.0025
     23 N         142.5456  139.8198  159.4738 N.ar    1  UNL1       -0.3123
     24 C         142.5722  139.1335  158.1403 C.ar    1  UNL1        0.0961
     25 C         142.7810  137.6672  158.3777 C.ar    1  UNL1        0.0997
     26 N         142.8835  137.4473  159.8579 N.ar    1  UNL1       -0.2309
     27 C         142.7379  138.7776  160.5354 C.ar    1  UNL1        0.1200
     28 C         142.8716  136.6069  157.3204 C.ar    1  UNL1        0.0193
     29 C         142.6961  136.9712  155.8760 C.ar    1  UNL1        0.0038
     30 C         142.7867  135.9110  154.8188 C.ar    1  UNL1        0.0296
     31 C         143.0526  134.4865  155.2061 C.ar    1  UNL1        0.1440
     32 F         143.1431  133.4262  154.1488 F       1  UNL1       -0.2042
     33 C         143.2280  134.1222  156.6505 C.ar    1  UNL1        0.0988
     34 C         143.1375  135.1824  157.7077 C.ar    1  UNL1        0.0077
     35 C         143.4939  132.6976  157.0378 C.3     1  UNL1        0.4207
     36 F         143.7599  131.2731  157.4250 F       1  UNL1       -0.1658
     37 F         142.1317  132.3092  156.5445 F       1  UNL1       -0.1658
     38 F         144.8562  133.0860  157.5310 F       1  UNL1       -0.1658
     39 C         142.3593  141.2901  159.7051 C.3     1  UNL1        0.1245
     40 C         141.0242  141.8177  160.1402 C.3     1  UNL1        0.0970
     41 C         141.3527  144.3931  160.2350 C.3     1  UNL1        0.0897
     42 N         140.5956  143.1976  159.7376 N.3     1  UNL1       -0.2687
     43 C         139.4099  143.3819  158.8376 C.3     1  UNL1        0.0897
@<TRIPOS>BOND
     1    41    42    1
     2    42    43    1
     3    42    40    1
     4    40    39    1
     5    39    23    1
     6    23    24   ar
     7    24    25   ar
     8    25    28    1
     9    28    29   ar
    10    29    30   ar
    11    30    31   ar
    12    31    32    1
    13    31    33   ar
    14    33    35    1
    15    35    36    1
    16    35    37    1
    17    35    38    1
    18    33    34   ar
    19    25    26   ar
    20    26    27   ar
    21    27     1    1
    22     1     2    1
    23     2     3    1
    24     3     4    1
    25     4     7    1
    26     7     8   ar
    27     8     9   ar
    28     9    10   ar
    29    10    11   ar
    30    11    12    1
    31    11    13   ar
    32    13    16    1
    33    16    17   ar
    34    17    18   ar
    35    18    19   ar
    36    19    20    1
    37    19    21   ar
    38    21    22   ar
    39     4     5    1
    40     5     6    1
    41    27    23   ar
    42     6     1    1
    43    34    28   ar
    44    13     7   ar
    45    22    16   ar
    46    12    14    1
    47    12    15    1
@<TRIPOS>MOLECULE
*****
 43 47 0 0 0
SMALL
GASTEIGER

@<TRIPOS>ATOM
      1 C         141.0881  140.4134  161.7891 C.3     1  UNL1        0.0603
      2 C         142.2684  140.8281  160.9615 C.3     1  UNL1        0.0290
      3 C         142.5743  140.1119  159.6795 C.3     1  UNL1        0.0926
      4 N         141.6998  138.9811  159.2251 N.pl3   1  UNL1       -0.2931
      5 C         140.5195  138.5663  160.0528 C.3     1  UNL1        0.0926
      6 C         140.2137  139.2825  161.3347 C.3     1  UNL1        0.0290
      7 C         142.0057  138.2649  157.9431 C.ar    1  UNL1        0.1361
      8 N         142.9230  137.0781  157.9474 N.ar    1  UNL1       -0.2089
      9 C         143.2289  136.3620  156.6654 C.ar    1  UNL1        0.2012
     10 N         142.6174  136.8327  155.3790 N.ar    1  UNL1       -0.2094
     11 C         141.7001  138.0195  155.3747 C.ar    1  UNL1        0.1298
     12 N         141.0886  138.4901  154.0884 N.pl3   1  UNL1       -0.3425
     13 C         141.3942  138.7356  156.6567 C.ar    1  UNL1        0.0628
     14 H         141.2894  138.0201  153.2470 H       1  UNL1        0.1437
     15 H         140.4866  139.2690  154.0855 H       1  UNL1        0.1437
     16 C         140.4769  139.9224  156.6525 C.ar    1  UNL1        0.0055
     17 C         141.0382  141.3035  156.4869 C.ar    1  UNL1        0.0025
     18 C         140.1209  142.4903  156.4826 C.ar    1  UNL1        0.0296
     19 C         138.6423  142.2960  156.6439 C.ar    1  UNL1        0.1401
     20 F         137.7250  143.4828  156.6396 F       1  UNL1       -0.2042
     21 C         138.0810  140.9149  156.8095 C.ar    1  UNL1        0.0296
     22 C         138.9983  139.7281  156.8138 C.ar    1  UNL1        0.0025
     23 N         139.5821  141.9894  163.3361 N.ar    1  UNL1       -0.3123
     24 C         139.6810  142.5029  164.7420 C.ar    1  UNL1        0.0961
     25 C         140.9423  141.9603  165.3460 C.ar    1  UNL1        0.0997
     26 N         141.6229  141.1115  164.3133 N.ar    1  UNL1       -0.2309
     27 C         140.7823  141.1295  163.0712 C.ar    1  UNL1        0.1200
     28 C         141.4362  142.2208  166.7382 C.ar    1  UNL1        0.0193
     29 C         142.8985  142.1012  167.0499 C.ar    1  UNL1        0.0038
     30 C         143.3924  142.3617  168.4421 C.ar    1  UNL1        0.0296
     31 C         142.4239  142.7418  169.5226 C.ar    1  UNL1        0.1440
     32 F         142.9178  143.0023  170.9148 F       1  UNL1       -0.2042
     33 C         140.9615  142.8614  169.2109 C.ar    1  UNL1        0.0988
     34 C         140.4677  142.6009  167.8187 C.ar    1  UNL1        0.0077
     35 C         139.9930  143.2416  170.2914 C.3     1  UNL1        0.4207
     36 F         139.0245  143.6217  171.3719 F       1  UNL1       -0.1658
     37 F         140.3915  144.6800  170.1425 F       1  UNL1       -0.1658
     38 F         139.5946  141.8031  170.4403 F       1  UNL1       -0.1658
     39 C         138.4770  142.2841  162.3655 C.3     1  UNL1        0.1245
     40 C         138.2013  143.6988  161.9498 C.3     1  UNL1        0.0970
     41 C         139.6406  145.8609  161.8893 C.3     1  UNL1        0.0897
     42 N         139.2861  144.5199  161.3182 N.3     1  UNL1       -0.2687
     43 C         140.0165  144.0000  160.1157 C.3     1  UNL1        0.0897
@<TRIPOS>BOND
     1    41    42    1
     2    42    43    1
     3    42    40    1
     4    40    39    1
     5    39    23    1
     6    23    24   ar
     7    24    25   ar
     8    25    28    1
     9    28    29   ar
    10    29    30   ar
    11    30    31   ar
    12    31    32    1
    13    31    33   ar
    14    33    35    1
    15    35    36    1
    16    35    37    1
    17    35    38    1
    18    33    34   ar
    19    25    26   ar
    20    26    27   ar
    21    27     1    1
    22     1     2    1
    23     2     3    1
    24     3     4    1
    25     4     7    1
    26     7     8   ar
    27     8     9   ar
    28     9    10   ar
    29    10    11   ar
    30    11    12    1
    31    11    13   ar
    32    13    16    1
    33    16    17   ar
    34    17    18   ar
    35    18    19   ar
    36    19    20    1
    37    19    21   ar
    38    21    22   ar
    39     4     5    1
    40     5     6    1
    41    27    23   ar
    42     6     1    1
    43    34    28   ar
    44    13     7   ar
    45    22    16   ar
    46    12    14    1
    47    12    15    1
@<TRIPOS>MOLECULE
*****
 43 47 0 0 0
SMALL
GASTEIGER

@<TRIPOS>ATOM
      1 C         142.5109  142.2268  161.3656 C.3     1  UNL1        0.0603
      2 C         143.7233  142.8672  160.7574 C.3     1  UNL1        0.0290
      3 C         144.1295  142.5229  159.3550 C.3     1  UNL1        0.0926
      4 N         143.3233  141.5383  158.5611 N.pl3   1  UNL1       -0.2931
      5 C         142.1109  140.8978  159.1693 C.3     1  UNL1        0.0926
      6 C         141.7047  141.2421  160.5716 C.3     1  UNL1        0.0290
      7 C         143.7295  141.1940  157.1587 C.ar    1  UNL1        0.1361
      8 N         144.6776  140.0586  156.9099 N.ar    1  UNL1       -0.2089
      9 C         145.0838  139.7143  155.5075 C.ar    1  UNL1        0.2012
     10 N         144.5419  140.5055  154.3541 N.ar    1  UNL1       -0.2094
     11 C         143.5938  141.6410  154.6029 C.ar    1  UNL1        0.1298
     12 N         143.0520  142.4321  153.4495 N.pl3   1  UNL1       -0.3425
     13 C         143.1876  141.9852  156.0053 C.ar    1  UNL1        0.0628
     14 H         143.3186  142.2062  152.5291 H       1  UNL1        0.1437
     15 H         142.4297  143.1774  153.6128 H       1  UNL1        0.1437
     16 C         142.2396  143.1207  156.2541 C.ar    1  UNL1        0.0055
     17 C         142.7698  144.5077  156.4662 C.ar    1  UNL1        0.0025
     18 C         141.8218  145.6431  156.7151 C.ar    1  UNL1        0.0296
     19 C         140.3435  145.3915  156.7519 C.ar    1  UNL1        0.1401
     20 F         139.3954  146.5270  157.0008 F       1  UNL1       -0.2042
     21 C         139.8132  144.0045  156.5398 C.ar    1  UNL1        0.0296
     22 C         140.7613  142.8691  156.2909 C.ar    1  UNL1        0.0025
     23 N         141.4240  143.8348  163.2037 N.ar    1  UNL1       -0.3123
     24 C         141.2065  143.7568  164.6857 C.ar    1  UNL1        0.0961
     25 C         141.7527  142.4449  165.1660 C.ar    1  UNL1        0.0997
     26 N         142.3078  141.7121  163.9808 N.ar    1  UNL1       -0.2309
     27 C         142.1047  142.5711  162.7680 C.ar    1  UNL1        0.1200
     28 C         141.7451  141.9523  166.5829 C.ar    1  UNL1        0.0193
     29 C         142.5833  140.7703  166.9705 C.ar    1  UNL1        0.0038
     30 C         142.5756  140.2778  168.3872 C.ar    1  UNL1        0.0296
     31 C         141.7299  140.9673  169.4164 C.ar    1  UNL1        0.1440
     32 F         141.7223  140.4747  170.8333 F       1  UNL1       -0.2042
     33 C         140.8918  142.1494  169.0289 C.ar    1  UNL1        0.0988
     34 C         140.8994  142.6419  167.6121 C.ar    1  UNL1        0.0077
     35 C         140.0460  142.8389  170.0581 C.3     1  UNL1        0.4207
     36 F         139.2003  143.5284  171.0873 F       1  UNL1       -0.1658
     37 F         139.1523  141.6363  170.1293 F       1  UNL1       -0.1658
     38 F         140.9397  144.0415  169.9868 F       1  UNL1       -0.1658
     39 C         141.0301  144.9761  162.3136 C.3     1  UNL1        0.1245
     40 C         139.5997  145.1399  161.8928 C.3     1  UNL1        0.0970
     41 C         138.4997  142.8682  161.2767 C.3     1  UNL1        0.0897
     42 N         138.6032  144.0574  162.1850 N.3     1  UNL1       -0.2687
     43 C         137.7103  144.1643  163.3855 C.3     1  UNL1        0.0897
@<TRIPOS>BOND
     1    41    42    1
     2    42    43    1
     3    42    40    1
     4    40    39    1
     5    39    23    1
     6    23    24   ar
     7    24    25   ar
     8    25    28    1
     9    28    29   ar
    10    29    30   ar
    11    30    31   ar
    12    31    32    1
    13    31    33   ar
    14    33    35    1
    15    35    36    1
    16    35    37    1
    17    35    38    1
    18    33    34   ar
    19    25    26   ar
    20    26    27   ar
    21    27     1    1
    22     1     2    1
    23     2     3    1
    24     3     4    1
    25     4     7    1
    26     7     8   ar
    27     8     9   ar
    28     9    10   ar
    29    10    11   ar
    30    11    12    1
    31    11    13   ar
    32    13    16    1
    33    16    17   ar
    34    17    18   ar
    35    18    19   ar
    36    19    20    1
    37    19    21   ar
    38    21    22   ar
    39     4     5    1
    40     5     6    1
    41    27    23   ar
    42     6     1    1
    43    34    28   ar
    44    13     7   ar
    45    22    16   ar
    46    12    14    1
    47    12    15    1
@<TRIPOS>MOLECULE
*****
 43 47 0 0 0
SMALL
GASTEIGER

@<TRIPOS>ATOM
      1 C         142.8120  139.5200  158.7669 C.3     1  UNL1        0.0603
      2 C         143.7300  139.5505  159.9528 C.3     1  UNL1        0.0290
      3 C         143.5652  140.6101  161.0017 C.3     1  UNL1        0.0926
      4 N         142.4825  141.6391  160.8647 N.pl3   1  UNL1       -0.2931
      5 C         141.5645  141.6085  159.6787 C.3     1  UNL1        0.0926
      6 C         141.7293  140.5490  158.6299 C.3     1  UNL1        0.0290
      7 C         142.3178  142.6986  161.9136 C.ar    1  UNL1        0.1361
      8 N         143.0532  143.9998  161.7872 N.ar    1  UNL1       -0.2089
      9 C         142.8885  145.0594  162.8361 C.ar    1  UNL1        0.2012
     10 N         141.9882  144.8177  164.0114 N.ar    1  UNL1       -0.2094
     11 C         141.2527  143.5166  164.1378 C.ar    1  UNL1        0.1298
     12 N         140.3525  143.2750  165.3130 N.pl3   1  UNL1       -0.3425
     13 C         141.4175  142.4570  163.0889 C.ar    1  UNL1        0.0628
     14 H         140.2444  143.9704  166.0014 H       1  UNL1        0.1437
     15 H         139.8698  142.4210  165.3960 H       1  UNL1        0.1437
     16 C         140.6820  141.1558  163.2152 C.ar    1  UNL1        0.0055
     17 C         139.3103  141.0094  162.6262 C.ar    1  UNL1        0.0025
     18 C         138.5749  139.7082  162.7525 C.ar    1  UNL1        0.0296
     19 C         139.2111  138.5534  163.4679 C.ar    1  UNL1        0.1401
     20 F         138.4757  137.2522  163.5943 F       1  UNL1       -0.2042
     21 C         140.5828  138.6999  164.0570 C.ar    1  UNL1        0.0296
     22 C         141.3183  140.0011  163.9306 C.ar    1  UNL1        0.0025
     23 N         143.5306  138.6636  156.3388 N.ar    1  UNL1       -0.3123
     24 C         143.5127  137.3404  155.6326 C.ar    1  UNL1        0.0961
     25 C         142.9479  136.3194  156.5753 C.ar    1  UNL1        0.0997
     26 N         142.6167  137.0116  157.8641 N.ar    1  UNL1       -0.2309
     27 C         142.9768  138.4604  157.7180 C.ar    1  UNL1        0.1200
     28 C         142.7492  134.8620  156.2808 C.ar    1  UNL1        0.0193
     29 C         141.6593  134.4275  155.3464 C.ar    1  UNL1        0.0038
     30 C         141.4606  132.9702  155.0519 C.ar    1  UNL1        0.0296
     31 C         142.3519  131.9474  155.6918 C.ar    1  UNL1        0.1440
     32 F         142.1533  130.4901  155.3973 F       1  UNL1       -0.2042
     33 C         143.4419  132.3820  156.6262 C.ar    1  UNL1        0.0988
     34 C         143.6405  133.8393  156.9207 C.ar    1  UNL1        0.0077
     35 C         144.3332  131.3592  157.2661 C.3     1  UNL1        0.4207
     36 F         145.2245  130.3364  157.9061 F       1  UNL1       -0.1658
     37 F         145.5193  131.9565  156.5687 F       1  UNL1       -0.1658
     38 F         143.1471  130.7619  157.9636 F       1  UNL1       -0.1658
     39 C         144.0168  139.9620  155.7664 C.3     1  UNL1        0.1245
     40 C         145.4822  140.2822  155.7721 C.3     1  UNL1        0.0970
     41 C         147.2717  142.1465  156.0409 C.3     1  UNL1        0.0897
     42 N         145.9773  141.5175  156.4640 N.3     1  UNL1       -0.2687
     43 C         145.1781  142.1240  157.5791 C.3     1  UNL1        0.0897
@<TRIPOS>BOND
     1    41    42    1
     2    42    43    1
     3    42    40    1
     4    40    39    1
     5    39    23    1
     6    23    24   ar
     7    24    25   ar
     8    25    28    1
     9    28    29   ar
    10    29    30   ar
    11    30    31   ar
    12    31    32    1
    13    31    33   ar
    14    33    35    1
    15    35    36    1
    16    35    37    1
    17    35    38    1
    18    33    34   ar
    19    25    26   ar
    20    26    27   ar
    21    27     1    1
    22     1     2    1
    23     2     3    1
    24     3     4    1
    25     4     7    1
    26     7     8   ar
    27     8     9   ar
    28     9    10   ar
    29    10    11   ar
    30    11    12    1
    31    11    13   ar
    32    13    16    1
    33    16    17   ar
    34    17    18   ar
    35    18    19   ar
    36    19    20    1
    37    19    21   ar
    38    21    22   ar
    39     4     5    1
    40     5     6    1
    41    27    23   ar
    42     6     1    1
    43    34    28   ar
    44    13     7   ar
    45    22    16   ar
    46    12    14    1
    47    12    15    1
@<TRIPOS>MOLECULE
*****
 43 47 0 0 0
SMALL
GASTEIGER

@<TRIPOS>ATOM
      1 C         139.7748  141.9451  162.3090 C.3     1  UNL1        0.0603
      2 C         141.1200  142.4620  161.8930 C.3     1  UNL1        0.0290
      3 C         141.2801  143.1616  160.5759 C.3     1  UNL1        0.0926
      4 N         140.0950  143.3443  159.6748 N.pl3   1  UNL1       -0.2931
      5 C         138.7497  142.8274  160.0907 C.3     1  UNL1        0.0926
      6 C         138.5896  142.1278  161.4078 C.3     1  UNL1        0.0290
      7 C         140.2552  144.0439  158.3576 C.ar    1  UNL1        0.1361
      8 N         140.1891  145.5410  158.2906 N.ar    1  UNL1       -0.2089
      9 C         140.3493  146.2406  156.9735 C.ar    1  UNL1        0.2012
     10 N         140.5755  145.4431  155.7232 N.ar    1  UNL1       -0.2094
     11 C         140.6415  143.9461  155.7902 C.ar    1  UNL1        0.1298
     12 N         140.8677  143.1487  154.5400 N.pl3   1  UNL1       -0.3425
     13 C         140.4814  143.2465  157.1074 C.ar    1  UNL1        0.0628
     14 H         140.9728  143.6079  153.6755 H       1  UNL1        0.1437
     15 H         140.9111  142.1661  154.5840 H       1  UNL1        0.1437
     16 C         140.5475  141.7494  157.1744 C.ar    1  UNL1        0.0055
     17 C         139.3073  140.9336  156.9586 C.ar    1  UNL1        0.0025
     18 C         139.3734  139.4366  157.0256 C.ar    1  UNL1        0.0296
     19 C         140.6796  138.7554  157.3083 C.ar    1  UNL1        0.1401
     20 F         140.7456  137.2583  157.3753 F       1  UNL1       -0.2042
     21 C         141.9197  139.5712  157.5240 C.ar    1  UNL1        0.0296
     22 C         141.8536  141.0682  157.4571 C.ar    1  UNL1        0.0025
     23 N         138.8833  139.9561  163.8565 N.ar    1  UNL1       -0.3123
     24 C         138.9744  139.6261  165.3169 C.ar    1  UNL1        0.0961
     25 C         139.7619  140.7115  165.9891 C.ar    1  UNL1        0.0997
     26 N         140.1576  141.7122  164.9442 N.ar    1  UNL1       -0.2309
     27 C         139.6146  141.2454  163.6262 C.ar    1  UNL1        0.1200
     28 C         140.0953  140.7834  167.4499 C.ar    1  UNL1        0.0193
     29 C         139.1937  140.1343  168.4578 C.ar    1  UNL1        0.0038
     30 C         139.5270  140.2063  169.9185 C.ar    1  UNL1        0.0296
     31 C         140.7620  140.9272  170.3713 C.ar    1  UNL1        0.1440
     32 F         141.0953  140.9991  171.8321 F       1  UNL1       -0.2042
     33 C         141.6636  141.5763  169.3634 C.ar    1  UNL1        0.0988
     34 C         141.3303  141.5043  167.9028 C.ar    1  UNL1        0.0077
     35 C         142.8986  142.2972  169.8163 C.3     1  UNL1        0.4207
     36 F         144.1336  143.0182  170.2691 F       1  UNL1       -0.1658
     37 F         143.6851  141.0256  169.6958 F       1  UNL1       -0.1658
     38 F         142.1121  143.5688  169.9367 F       1  UNL1       -0.1658
     39 C         138.1838  139.1401  162.8102 C.3     1  UNL1        0.1245
     40 C         138.7914  137.8551  162.3310 C.3     1  UNL1        0.0970
     41 C         141.0110  138.2198  161.0309 C.3     1  UNL1        0.0897
     42 N         140.2824  137.7177  162.2421 N.3     1  UNL1       -0.2687
     43 C         141.0448  137.0781  163.3645 C.3     1  UNL1        0.0897
@<TRIPOS>BOND
     1    41    42    1
     2    42    43    1
     3    42    40    1
     4    40    39    1
     5    39    23    1
     6    23    24   ar
     7    24    25   ar
     8    25    28    1
     9    28    29   ar
    10    29    30   ar
    11    30    31   ar
    12    31    32    1
    13    31    33   ar
    14    33    35    1
    15    35    36    1
    16    35    37    1
    17    35    38    1
    18    33    34   ar
    19    25    26   ar
    20    26    27   ar
    21    27     1    1
    22     1     2    1
    23     2     3    1
    24     3     4    1
    25     4     7    1
    26     7     8   ar
    27     8     9   ar
    28     9    10   ar
    29    10    11   ar
    30    11    12    1
    31    11    13   ar
    32    13    16    1
    33    16    17   ar
    34    17    18   ar
    35    18    19   ar
    36    19    20    1
    37    19    21   ar
    38    21    22   ar
    39     4     5    1
    40     5     6    1
    41    27    23   ar
    42     6     1    1
    43    34    28   ar
    44    13     7   ar
    45    22    16   ar
    46    12    14    1
    47    12    15    1
@<TRIPOS>MOLECULE
*****
 43 47 0 0 0
SMALL
GASTEIGER

@<TRIPOS>ATOM
      1 C         142.9803  139.6288  160.0195 C.3     1  UNL1        0.0603
      2 C         144.0950  139.2324  160.9416 C.3     1  UNL1        0.0290
      3 C         144.2748  139.9433  162.2501 C.3     1  UNL1        0.0926
      4 N         143.3398  141.0507  162.6365 N.pl3   1  UNL1       -0.2931
      5 C         142.2250  141.4472  161.7144 C.3     1  UNL1        0.0926
      6 C         142.0454  140.7363  160.4060 C.3     1  UNL1        0.0290
      7 C         143.5195  141.7617  163.9451 C.ar    1  UNL1        0.1361
      8 N         144.5399  142.8539  164.0712 N.ar    1  UNL1       -0.2089
      9 C         144.7196  143.5648  165.3798 C.ar    1  UNL1        0.2012
     10 N         143.8789  143.1835  166.5622 N.ar    1  UNL1       -0.2094
     11 C         142.8585  142.0913  166.4360 C.ar    1  UNL1        0.1298
     12 N         142.0179  141.7101  167.6184 N.pl3   1  UNL1       -0.3425
     13 C         142.6788  141.3804  165.1275 C.ar    1  UNL1        0.0628
     14 H         142.1359  142.1767  168.4772 H       1  UNL1        0.1437
     15 H         141.3482  140.9932  167.5356 H       1  UNL1        0.1437
     16 C         141.6585  140.2882  165.0013 C.ar    1  UNL1        0.0055
     17 C         142.0854  138.8517  165.0672 C.ar    1  UNL1        0.0025
     18 C         141.0651  137.7595  164.9410 C.ar    1  UNL1        0.0296
     19 C         139.6178  138.1037  164.7489 C.ar    1  UNL1        0.1401
     20 F         138.5974  137.0115  164.6228 F       1  UNL1       -0.2042
     21 C         139.1908  139.5402  164.6830 C.ar    1  UNL1        0.0296
     22 C         140.2112  140.6324  164.8092 C.ar    1  UNL1        0.0025
     23 N         142.3499  139.5415  157.4233 N.ar    1  UNL1       -0.3123
     24 C         142.3108  138.4675  156.3769 C.ar    1  UNL1        0.0961
     25 C         142.7373  137.1801  157.0178 C.ar    1  UNL1        0.0997
     26 N         143.0401  137.4585  158.4603 N.ar    1  UNL1       -0.2309
     27 C         142.8006  138.9179  158.7110 C.ar    1  UNL1        0.1200
     28 C         142.8426  135.8482  156.3359 C.ar    1  UNL1        0.0193
     29 C         142.4768  135.7164  154.8872 C.ar    1  UNL1        0.0038
     30 C         142.5821  134.3845  154.2053 C.ar    1  UNL1        0.0296
     31 C         143.0533  133.1845  154.9721 C.ar    1  UNL1        0.1440
     32 F         143.1586  131.8526  154.2901 F       1  UNL1       -0.2042
     33 C         143.4192  133.3164  156.4208 C.ar    1  UNL1        0.0988
     34 C         143.3138  134.6482  157.1026 C.ar    1  UNL1        0.0077
     35 C         143.8903  132.1164  157.1875 C.3     1  UNL1        0.4207
     36 F         144.3615  130.9164  157.9543 F       1  UNL1       -0.1658
     37 F         142.5115  131.5300  157.1173 F       1  UNL1       -0.1658
     38 F         145.2692  132.7027  157.2578 F       1  UNL1       -0.1658
     39 C         141.9998  140.9856  157.2182 C.3     1  UNL1        0.1245
     40 C         143.0493  141.9539  156.7590 C.3     1  UNL1        0.0970
     41 C         145.5071  141.1342  156.5653 C.3     1  UNL1        0.0897
     42 N         144.4395  141.8732  157.3165 N.3     1  UNL1       -0.2687
     43 C         144.7622  142.5316  158.6251 C.3     1  UNL1        0.0897
@<TRIPOS>BOND
     1    41    42    1
     2    42    43    1
     3    42    40    1
     4    40    39    1
     5    39    23    1
     6    23    24   ar
     7    24    25   ar
     8    25    28    1
     9    28    29   ar
    10    29    30   ar
    11    30    31   ar
    12    31    32    1
    13    31    33   ar
    14    33    35    1
    15    35    36    1
    16    35    37    1
    17    35    38    1
    18    33    34   ar
    19    25    26   ar
    20    26    27   ar
    21    27     1    1
    22     1     2    1
    23     2     3    1
    24     3     4    1
    25     4     7    1
    26     7     8   ar
    27     8     9   ar
    28     9    10   ar
    29    10    11   ar
    30    11    12    1
    31    11    13   ar
    32    13    16    1
    33    16    17   ar
    34    17    18   ar
    35    18    19   ar
    36    19    20    1
    37    19    21   ar
    38    21    22   ar
    39     4     5    1
    40     5     6    1
    41    27    23   ar
    42     6     1    1
    43    34    28   ar
    44    13     7   ar
    45    22    16   ar
    46    12    14    1
    47    12    15    1
