@<TRIPOS>MOLECULE
*****
 35 39 0 0 0
SMALL
GASTEIGER

@<TRIPOS>ATOM
      1 C         142.7160  142.4524  160.8232 C.3     1  UNL1        0.0730
      2 N         142.0141  143.2490  161.8829 N.3     1  UNL1       -0.2726
      3 C         142.0606  144.7399  162.0410 C.3     1  UNL1        0.0721
      4 C         141.2178  145.1068  163.2263 C.3     1  UNL1        0.0190
      5 C         140.6505  143.8426  163.8009 C.3     1  UNL1        0.0201
      6 C         139.8932  144.5026  164.9148 C.3     1  UNL1        0.0061
      7 C         139.8468  143.0117  164.7568 C.3     1  UNL1        0.0237
      8 C         141.1427  142.6944  162.9706 C.3     1  UNL1        0.0724
      9 C         139.3560  141.6712  165.2174 C.ar    1  UNL1       -0.0225
     10 C         139.5890  141.2331  166.6330 C.ar    1  UNL1       -0.0043
     11 C         139.0982  139.8926  167.0936 C.ar    1  UNL1        0.0035
     12 C         138.3744  138.9902  166.1386 C.ar    1  UNL1        0.0714
     13 C         138.1415  139.4284  164.7230 C.ar    1  UNL1        0.0035
     14 C         138.6323  140.7689  164.2624 C.ar    1  UNL1       -0.0043
     15 C         137.8837  137.6498  166.5992 C.3     1  UNL1        0.4186
     16 F         137.3929  136.3092  167.0598 F       1  UNL1       -0.1659
     17 F         137.0811  138.3143  167.6782 F       1  UNL1       -0.1659
     18 F         138.6862  136.9852  165.5202 F       1  UNL1       -0.1659
     19 C         142.3467  141.0164  160.5965 C.3     1  UNL1        0.0294
     20 C         143.4064  140.0169  160.2385 C.3     1  UNL1        0.0666
     21 S         143.8134  138.9676  161.2301 S.3     1  UNL1       -0.0756
     22 C         144.6752  140.9191  163.6996 C.3     1  UNL1        0.1340
     23 N         143.6124  139.8613  163.7412 N.ar    1  UNL1       -0.2884
     24 C         143.2163  138.9644  162.6061 C.ar    1  UNL1        0.1932
     25 N         142.1182  138.0635  163.0886 N.ar    1  UNL1       -0.1221
     26 N         141.8357  138.4038  164.5219 N.ar    1  UNL1       -0.1282
     27 C         142.7591  139.5149  164.9253 C.ar    1  UNL1        0.1683
     28 C         142.8188  140.1653  166.2757 C.ar    1  UNL1        0.0534
     29 C         143.0281  141.6465  166.3861 C.ar    1  UNL1        0.0094
     30 C         143.0878  142.2970  167.7364 C.ar    1  UNL1        0.0609
     31 C         142.9382  141.4661  168.9763 C.ar    1  UNL1        0.2610
     32 O         142.9979  142.1165  170.3267 O.2     1  UNL1       -0.2670
     33 N         142.7289  139.9849  168.8659 N.ar    1  UNL1       -0.2921
     34 C         142.5793  139.1541  170.1058 C.3     1  UNL1        0.1336
     35 C         142.6692  139.3345  167.5155 C.ar    1  UNL1        0.0814
@<TRIPOS>BOND
     1    22    23    1
     2    23    24   ar
     3    24    21    1
     4    21    20    1
     5    20    19    1
     6    19     1    1
     7     1     2    1
     8     2     3    1
     9     3     4    1
    10     5     4    1
    11     5     6    1
    12     6     7    1
    13     7     9    1
    14     9    10   ar
    15    10    11   ar
    16    11    12   ar
    17    12    15    1
    18    15    16    1
    19    15    17    1
    20    15    18    1
    21    12    13   ar
    22    13    14   ar
    23     5     8    1
    24    24    25   ar
    25    25    26   ar
    26    26    27   ar
    27    27    28    1
    28    28    29   ar
    29    29    30   ar
    30    30    31   ar
    31    31    32    2
    32    31    33   ar
    33    33    34    1
    34    33    35   ar
    35    27    23   ar
    36    35    28   ar
    37     8     2    1
    38     7     5    1
    39    14     9   ar
@<TRIPOS>MOLECULE
*****
 35 39 0 0 0
SMALL
GASTEIGER

@<TRIPOS>ATOM
      1 C         141.4624  143.1607  159.8244 C.3     1  UNL1        0.0730
      2 N         140.9060  143.8920  161.0099 N.3     1  UNL1       -0.2726
      3 C         140.8725  145.3806  161.1915 C.3     1  UNL1        0.0721
      4 C         140.2311  145.6717  162.5158 C.3     1  UNL1        0.0190
      5 C         139.8682  144.3630  163.1527 C.3     1  UNL1        0.0201
      6 C         139.2768  144.9535  164.3983 C.3     1  UNL1        0.0061
      7 C         139.3102  143.4649  164.2168 C.3     1  UNL1        0.0237
      8 C         140.2852  143.2631  162.2220 C.3     1  UNL1        0.0724
      9 C         139.0074  142.0870  164.7262 C.ar    1  UNL1       -0.0225
     10 C         139.5115  141.6574  166.0721 C.ar    1  UNL1       -0.0043
     11 C         139.2087  140.2795  166.5816 C.ar    1  UNL1        0.0035
     12 C         138.4018  139.3311  165.7452 C.ar    1  UNL1        0.0714
     13 C         137.8978  139.7607  164.3993 C.ar    1  UNL1        0.0035
     14 C         138.2006  141.1386  163.8898 C.ar    1  UNL1       -0.0043
     15 C         138.0990  137.9532  166.2546 C.3     1  UNL1        0.4186
     16 F         137.7963  136.5752  166.7641 F       1  UNL1       -0.1659
     17 F         137.1429  138.5329  167.2544 F       1  UNL1       -0.1659
     18 F         139.0552  137.3734  165.2549 F       1  UNL1       -0.1659
     19 C         142.5320  142.1266  160.0154 C.3     1  UNL1        0.0294
     20 C         143.9748  142.4991  159.8436 C.3     1  UNL1        0.0666
     21 S         144.8774  142.5749  161.0393 S.3     1  UNL1       -0.0756
     22 C         144.6501  140.1994  163.2652 C.3     1  UNL1        0.1340
     23 N         144.1871  141.6158  163.4369 N.ar    1  UNL1       -0.2884
     24 C         144.2916  142.7077  162.4138 C.ar    1  UNL1        0.1932
     25 N         143.7075  143.9558  163.0064 N.ar    1  UNL1       -0.1221
     26 N         143.2420  143.6352  164.3958 N.ar    1  UNL1       -0.1282
     27 C         143.5384  142.1890  164.6620 C.ar    1  UNL1        0.1683
     28 C         143.2387  141.4465  165.9304 C.ar    1  UNL1        0.0534
     29 C         142.9147  139.9826  165.8838 C.ar    1  UNL1        0.0094
     30 C         142.6151  139.2401  167.1522 C.ar    1  UNL1        0.0609
     31 C         142.6394  139.9615  168.4672 C.ar    1  UNL1        0.2610
     32 O         142.3397  139.2190  169.7356 O.2     1  UNL1       -0.2670
     33 N         142.9634  141.4254  168.5137 N.ar    1  UNL1       -0.2921
     34 C         142.9877  142.1467  169.8287 C.3     1  UNL1        0.1336
     35 C         143.2631  142.1678  167.2453 C.ar    1  UNL1        0.0814
@<TRIPOS>BOND
     1    22    23    1
     2    23    24   ar
     3    24    21    1
     4    21    20    1
     5    20    19    1
     6    19     1    1
     7     1     2    1
     8     2     3    1
     9     3     4    1
    10     5     4    1
    11     5     6    1
    12     6     7    1
    13     7     9    1
    14     9    10   ar
    15    10    11   ar
    16    11    12   ar
    17    12    15    1
    18    15    16    1
    19    15    17    1
    20    15    18    1
    21    12    13   ar
    22    13    14   ar
    23     5     8    1
    24    24    25   ar
    25    25    26   ar
    26    26    27   ar
    27    27    28    1
    28    28    29   ar
    29    29    30   ar
    30    30    31   ar
    31    31    32    2
    32    31    33   ar
    33    33    34    1
    34    33    35   ar
    35    27    23   ar
    36    35    28   ar
    37     8     2    1
    38     7     5    1
    39    14     9   ar
@<TRIPOS>MOLECULE
*****
 35 39 0 0 0
SMALL
GASTEIGER

@<TRIPOS>ATOM
      1 C         144.2899  142.7882  162.1465 C.3     1  UNL1        0.0730
      2 N         142.8895  143.0248  161.6638 N.3     1  UNL1       -0.2726
      3 C         142.4779  143.9880  160.5901 C.3     1  UNL1        0.0721
      4 C         140.9889  143.8981  160.4328 C.3     1  UNL1        0.0190
      5 C         140.4803  142.8793  161.4092 C.3     1  UNL1        0.0201
      6 C         139.0344  143.0080  161.0311 C.3     1  UNL1        0.0061
      7 C         139.4460  142.0448  162.1048 C.3     1  UNL1        0.0237
      8 C         141.6549  142.3395  162.1700 C.3     1  UNL1        0.0724
      9 C         139.0865  141.0068  163.1263 C.ar    1  UNL1       -0.0225
     10 C         138.6354  141.4254  164.4942 C.ar    1  UNL1       -0.0043
     11 C         138.2760  140.3875  165.5157 C.ar    1  UNL1        0.0035
     12 C         138.3676  138.9310  165.1692 C.ar    1  UNL1        0.0714
     13 C         138.8187  138.5123  163.8013 C.ar    1  UNL1        0.0035
     14 C         139.1782  139.5503  162.7798 C.ar    1  UNL1       -0.0043
     15 C         138.0081  137.8930  166.1907 C.3     1  UNL1        0.4186
     16 F         137.6486  136.8551  167.2123 F       1  UNL1       -0.1659
     17 F         138.4730  136.8142  165.2580 F       1  UNL1       -0.1659
     18 F         137.5433  138.9719  167.1234 F       1  UNL1       -0.1659
     19 C         144.8832  141.4121  162.0817 C.3     1  UNL1        0.0294
     20 C         145.0863  140.6227  163.3409 C.3     1  UNL1        0.0666
     21 S         144.0981  139.5633  163.7296 S.3     1  UNL1       -0.0756
     22 C         142.5404  141.7203  165.6192 C.3     1  UNL1        0.1340
     23 N         143.0177  140.3621  166.0404 N.ar    1  UNL1       -0.2884
     24 C         143.7336  139.3706  165.1718 C.ar    1  UNL1        0.1932
     25 N         144.0212  138.1526  165.9987 N.ar    1  UNL1       -0.1221
     26 N         143.4829  138.3912  167.3783 N.ar    1  UNL1       -0.1282
     27 C         142.8627  139.7568  167.4041 C.ar    1  UNL1        0.1683
     28 C         142.2033  140.4035  168.5861 C.ar    1  UNL1        0.0534
     29 C         142.9895  141.3218  169.4741 C.ar    1  UNL1        0.0094
     30 C         142.3302  141.9685  170.6560 C.ar    1  UNL1        0.0609
     31 C         140.8845  141.6967  170.9500 C.ar    1  UNL1        0.2610
     32 O         140.2251  142.3434  172.1319 O.2     1  UNL1       -0.2670
     33 N         140.0983  140.7784  170.0620 N.ar    1  UNL1       -0.2921
     34 C         138.6527  140.5068  170.3560 C.3     1  UNL1        0.1336
     35 C         140.7578  140.1318  168.8800 C.ar    1  UNL1        0.0814
@<TRIPOS>BOND
     1    22    23    1
     2    23    24   ar
     3    24    21    1
     4    21    20    1
     5    20    19    1
     6    19     1    1
     7     1     2    1
     8     2     3    1
     9     3     4    1
    10     5     4    1
    11     5     6    1
    12     6     7    1
    13     7     9    1
    14     9    10   ar
    15    10    11   ar
    16    11    12   ar
    17    12    15    1
    18    15    16    1
    19    15    17    1
    20    15    18    1
    21    12    13   ar
    22    13    14   ar
    23     5     8    1
    24    24    25   ar
    25    25    26   ar
    26    26    27   ar
    27    27    28    1
    28    28    29   ar
    29    29    30   ar
    30    30    31   ar
    31    31    32    2
    32    31    33   ar
    33    33    34    1
    34    33    35   ar
    35    27    23   ar
    36    35    28   ar
    37     8     2    1
    38     7     5    1
    39    14     9   ar
@<TRIPOS>MOLECULE
*****
 35 39 0 0 0
SMALL
GASTEIGER

@<TRIPOS>ATOM
      1 C         141.8429  138.3044  161.2216 C.3     1  UNL1        0.0730
      2 N         142.7545  139.4235  161.6299 N.3     1  UNL1       -0.2726
      3 C         144.2268  139.5061  161.3553 C.3     1  UNL1        0.0721
      4 C         144.7360  140.7901  161.9402 C.3     1  UNL1        0.0190
      5 C         143.5784  141.5009  162.5764 C.3     1  UNL1        0.0201
      6 C         144.3640  142.6881  163.0490 C.3     1  UNL1        0.0061
      7 C         142.8917  142.6055  163.3236 C.3     1  UNL1        0.0237
      8 C         142.3537  140.6563  162.3846 C.3     1  UNL1        0.0724
      9 C         141.6451  143.1955  163.9136 C.ar    1  UNL1       -0.0225
     10 C         140.9515  144.3304  163.2201 C.ar    1  UNL1       -0.0043
     11 C         139.7050  144.9203  163.8100 C.ar    1  UNL1        0.0035
     12 C         139.1521  144.3754  165.0935 C.ar    1  UNL1        0.0714
     13 C         139.8457  143.2405  165.7870 C.ar    1  UNL1        0.0035
     14 C         141.0922  142.6505  165.1970 C.ar    1  UNL1       -0.0043
     15 C         137.9055  144.9654  165.6834 C.3     1  UNL1        0.4186
     16 F         136.6589  145.5554  166.2735 F       1  UNL1       -0.1659
     17 F         137.0884  144.3162  164.6060 F       1  UNL1       -0.1659
     18 F         138.7227  145.6145  166.7609 F       1  UNL1       -0.1659
     19 C         140.3743  138.5578  161.0507 C.3     1  UNL1        0.0294
     20 C         139.4701  138.5648  162.2475 C.3     1  UNL1        0.0666
     21 S         139.7694  137.6769  163.4189 S.3     1  UNL1       -0.0756
     22 C         138.4123  139.3785  165.8504 C.3     1  UNL1        0.1340
     23 N         139.8620  139.0119  165.7328 N.ar    1  UNL1       -0.2884
     24 C         140.4858  138.2298  164.6152 C.ar    1  UNL1        0.1932
     25 N         141.9519  138.0975  164.9038 N.ar    1  UNL1       -0.1221
     26 N         142.2341  138.7979  166.1998 N.ar    1  UNL1       -0.1282
     27 C         140.9425  139.3631  166.7123 C.ar    1  UNL1        0.1683
     28 C         140.7630  140.1425  167.9813 C.ar    1  UNL1        0.0534
     29 C         139.4759  140.0454  168.7454 C.ar    1  UNL1        0.0094
     30 C         139.2963  140.8248  170.0143 C.ar    1  UNL1        0.0609
     31 C         140.4041  141.7013  170.5192 C.ar    1  UNL1        0.2610
     32 O         140.2245  142.4807  171.7881 O.2     1  UNL1       -0.2670
     33 N         141.6912  141.7984  169.7551 N.ar    1  UNL1       -0.2921
     34 C         142.7988  142.6749  170.2600 C.3     1  UNL1        0.1336
     35 C         141.8706  141.0189  168.4861 C.ar    1  UNL1        0.0814
@<TRIPOS>BOND
     1    22    23    1
     2    23    24   ar
     3    24    21    1
     4    21    20    1
     5    20    19    1
     6    19     1    1
     7     1     2    1
     8     2     3    1
     9     3     4    1
    10     5     4    1
    11     5     6    1
    12     6     7    1
    13     7     9    1
    14     9    10   ar
    15    10    11   ar
    16    11    12   ar
    17    12    15    1
    18    15    16    1
    19    15    17    1
    20    15    18    1
    21    12    13   ar
    22    13    14   ar
    23     5     8    1
    24    24    25   ar
    25    25    26   ar
    26    26    27   ar
    27    27    28    1
    28    28    29   ar
    29    29    30   ar
    30    30    31   ar
    31    31    32    2
    32    31    33   ar
    33    33    34    1
    34    33    35   ar
    35    27    23   ar
    36    35    28   ar
    37     8     2    1
    38     7     5    1
    39    14     9   ar
@<TRIPOS>MOLECULE
*****
 35 39 0 0 0
SMALL
GASTEIGER

@<TRIPOS>ATOM
      1 C         139.4606  143.3537  159.5675 C.3     1  UNL1        0.0730
      2 N         139.4799  141.8567  159.4741 N.3     1  UNL1       -0.2726
      3 C         139.7113  141.0539  158.2284 C.3     1  UNL1        0.0721
      4 C         139.6456  139.6008  158.5946 C.3     1  UNL1        0.0190
      5 C         139.3737  139.5055  160.0667 C.3     1  UNL1        0.0201
      6 C         139.3645  138.0068  160.1278 C.3     1  UNL1        0.0061
      7 C         139.1332  138.8096  161.3735 C.3     1  UNL1        0.0237
      8 C         139.2713  140.8998  160.6103 C.3     1  UNL1        0.0724
      9 C         138.8608  138.8714  162.8473 C.ar    1  UNL1       -0.0225
     10 C         138.2832  140.1169  163.4517 C.ar    1  UNL1       -0.0043
     11 C         138.0108  140.1786  164.9254 C.ar    1  UNL1        0.0035
     12 C         138.3159  138.9949  165.7948 C.ar    1  UNL1        0.0714
     13 C         138.8935  137.7495  165.1903 C.ar    1  UNL1        0.0035
     14 C         139.1659  137.6877  163.7166 C.ar    1  UNL1       -0.0043
     15 C         138.0435  139.0567  167.2685 C.3     1  UNL1        0.4186
     16 F         137.7711  139.1184  168.7423 F       1  UNL1       -0.1659
     17 F         138.9918  140.2119  167.3954 F       1  UNL1       -0.1659
     18 F         137.0953  137.9014  167.1416 F       1  UNL1       -0.1659
     19 C         140.4673  144.0650  160.4222 C.3     1  UNL1        0.0294
     20 C         140.2187  145.4799  160.8540 C.3     1  UNL1        0.0666
     21 S         140.4121  145.8710  162.2891 S.3     1  UNL1       -0.0756
     22 C         142.6457  143.7506  163.3682 C.3     1  UNL1        0.1340
     23 N         141.2391  143.8823  163.8722 N.ar    1  UNL1       -0.2884
     24 C         140.2124  144.8570  163.3762 C.ar    1  UNL1        0.1932
     25 N         138.9509  144.6396  164.1582 N.ar    1  UNL1       -0.1221
     26 N         139.1980  143.5306  165.1375 N.ar    1  UNL1       -0.1282
     27 C         140.6121  143.0625  164.9608 C.ar    1  UNL1        0.1683
     28 C         141.2817  141.9671  165.7365 C.ar    1  UNL1        0.0534
     29 C         141.5385  140.6386  165.0890 C.ar    1  UNL1        0.0094
     30 C         142.2081  139.5431  165.8647 C.ar    1  UNL1        0.0609
     31 C         142.6209  139.7763  167.2878 C.ar    1  UNL1        0.2610
     32 O         143.2905  138.6808  168.0635 O.2     1  UNL1       -0.2670
     33 N         142.3641  141.1047  167.9353 N.ar    1  UNL1       -0.2921
     34 C         142.7769  141.3378  169.3584 C.3     1  UNL1        0.1336
     35 C         141.6945  142.2002  167.1595 C.ar    1  UNL1        0.0814
@<TRIPOS>BOND
     1    22    23    1
     2    23    24   ar
     3    24    21    1
     4    21    20    1
     5    20    19    1
     6    19     1    1
     7     1     2    1
     8     2     3    1
     9     3     4    1
    10     5     4    1
    11     5     6    1
    12     6     7    1
    13     7     9    1
    14     9    10   ar
    15    10    11   ar
    16    11    12   ar
    17    12    15    1
    18    15    16    1
    19    15    17    1
    20    15    18    1
    21    12    13   ar
    22    13    14   ar
    23     5     8    1
    24    24    25   ar
    25    25    26   ar
    26    26    27   ar
    27    27    28    1
    28    28    29   ar
    29    29    30   ar
    30    30    31   ar
    31    31    32    2
    32    31    33   ar
    33    33    34    1
    34    33    35   ar
    35    27    23   ar
    36    35    28   ar
    37     8     2    1
    38     7     5    1
    39    14     9   ar
@<TRIPOS>MOLECULE
*****
 35 39 0 0 0
SMALL
GASTEIGER

@<TRIPOS>ATOM
      1 C         142.9880  142.8296  160.2028 C.3     1  UNL1        0.0730
      2 N         142.1382  141.7033  159.6936 N.3     1  UNL1       -0.2726
      3 C         142.0567  141.2336  158.2714 C.3     1  UNL1        0.0721
      4 C         141.0888  140.0889  158.2160 C.3     1  UNL1        0.0190
      5 C         140.5721  139.8513  159.6040 C.3     1  UNL1        0.0201
      6 C         139.6730  138.7063  159.2427 C.3     1  UNL1        0.0061
      7 C         139.7544  139.1760  160.6649 C.3     1  UNL1        0.0237
      8 C         141.2206  140.8490  160.5172 C.3     1  UNL1        0.0724
      9 C         139.3294  139.0574  162.0985 C.ar    1  UNL1       -0.0225
     10 C         139.5998  137.7930  162.8588 C.ar    1  UNL1       -0.0043
     11 C         139.1748  137.6744  164.2924 C.ar    1  UNL1        0.0035
     12 C         138.4793  138.8202  164.9657 C.ar    1  UNL1        0.0714
     13 C         138.2088  140.0847  164.2054 C.ar    1  UNL1        0.0035
     14 C         138.6339  140.2033  162.7718 C.ar    1  UNL1       -0.0043
     15 C         138.0542  138.7016  166.3993 C.3     1  UNL1        0.4186
     16 F         137.6292  138.5829  167.8330 F       1  UNL1       -0.1659
     17 F         138.1653  140.1893  166.5553 F       1  UNL1       -0.1659
     18 F         137.9431  137.2139  166.2433 F       1  UNL1       -0.1659
     19 C         143.9893  142.5807  161.2915 C.3     1  UNL1        0.0294
     20 C         144.5032  143.7250  162.1140 C.3     1  UNL1        0.0666
     21 S         143.5504  144.5548  162.9225 S.3     1  UNL1       -0.0756
     22 C         143.9942  142.9961  165.7550 C.3     1  UNL1        0.1340
     23 N         142.6868  143.1726  165.0411 N.ar    1  UNL1       -0.2884
     24 C         142.4828  143.8890  163.7391 C.ar    1  UNL1        0.1932
     25 N         141.0238  143.8227  163.3971 N.ar    1  UNL1       -0.1221
     26 N         140.3261  143.0653  164.4878 N.ar    1  UNL1       -0.1282
     27 C         141.3538  142.6635  165.5038 C.ar    1  UNL1        0.1683
     28 C         141.0942  141.8886  166.7617 C.ar    1  UNL1        0.0534
     29 C         141.3681  140.4145  166.8045 C.ar    1  UNL1        0.0094
     30 C         141.1085  139.6396  168.0624 C.ar    1  UNL1        0.0609
     31 C         140.5749  140.3390  169.2774 C.ar    1  UNL1        0.2610
     32 O         140.3152  139.5642  170.5352 O.2     1  UNL1       -0.2670
     33 N         140.3010  141.8132  169.2345 N.ar    1  UNL1       -0.2921
     34 C         139.7674  142.5124  170.4496 C.3     1  UNL1        0.1336
     35 C         140.5606  142.5880  167.9766 C.ar    1  UNL1        0.0814
@<TRIPOS>BOND
     1    22    23    1
     2    23    24   ar
     3    24    21    1
     4    21    20    1
     5    20    19    1
     6    19     1    1
     7     1     2    1
     8     2     3    1
     9     3     4    1
    10     5     4    1
    11     5     6    1
    12     6     7    1
    13     7     9    1
    14     9    10   ar
    15    10    11   ar
    16    11    12   ar
    17    12    15    1
    18    15    16    1
    19    15    17    1
    20    15    18    1
    21    12    13   ar
    22    13    14   ar
    23     5     8    1
    24    24    25   ar
    25    25    26   ar
    26    26    27   ar
    27    27    28    1
    28    28    29   ar
    29    29    30   ar
    30    30    31   ar
    31    31    32    2
    32    31    33   ar
    33    33    34    1
    34    33    35   ar
    35    27    23   ar
    36    35    28   ar
    37     8     2    1
    38     7     5    1
    39    14     9   ar
@<TRIPOS>MOLECULE
*****
 35 39 0 0 0
SMALL
GASTEIGER

@<TRIPOS>ATOM
      1 C         142.8188  143.2147  160.2686 C.3     1  UNL1        0.0730
      2 N         142.9832  141.7280  160.1555 N.3     1  UNL1       -0.2726
      3 C         143.8584  141.0100  159.1714 C.3     1  UNL1        0.0721
      4 C         143.7173  139.5366  159.4145 C.3     1  UNL1        0.0190
      5 C         142.7549  139.3440  160.5488 C.3     1  UNL1        0.0201
      6 C         142.8178  137.8453  160.5550 C.3     1  UNL1        0.0061
      7 C         141.9425  138.5633  161.5391 C.3     1  UNL1        0.0237
      8 C         142.3012  140.6983  161.0068 C.3     1  UNL1        0.0724
      9 C         140.9682  138.5271  162.6790 C.ar    1  UNL1       -0.0225
     10 C         140.0682  139.6997  162.9339 C.ar    1  UNL1       -0.0043
     11 C         139.0939  139.6636  164.0738 C.ar    1  UNL1        0.0035
     12 C         139.0197  138.4547  164.9588 C.ar    1  UNL1        0.0714
     13 C         139.9197  137.2821  164.7039 C.ar    1  UNL1        0.0035
     14 C         140.8940  137.3183  163.5640 C.ar    1  UNL1       -0.0043
     15 C         138.0454  138.4186  166.0987 C.3     1  UNL1        0.4186
     16 F         137.0710  138.3824  167.2387 F       1  UNL1       -0.1659
     17 F         138.2279  136.9337  166.2076 F       1  UNL1       -0.1659
     18 F         137.8628  139.9034  165.9898 F       1  UNL1       -0.1659
     19 C         141.4472  143.8111  160.3831 C.3     1  UNL1        0.0294
     20 C         140.8772  144.1274  161.7340 C.3     1  UNL1        0.0666
     21 S         141.7635  144.6775  162.8119 S.3     1  UNL1       -0.0756
     22 C         139.5595  143.6239  164.9757 C.3     1  UNL1        0.1340
     23 N         141.0378  143.3758  165.0309 N.ar    1  UNL1       -0.2884
     24 C         142.0508  143.8600  164.0364 C.ar    1  UNL1        0.1932
     25 N         143.4018  143.3834  164.4812 N.ar    1  UNL1       -0.1221
     26 N         143.2236  142.6045  165.7507 N.ar    1  UNL1       -0.1282
     27 C         141.7626  142.5998  166.0905 C.ar    1  UNL1        0.1683
     28 C         141.1363  141.9357  167.2808 C.ar    1  UNL1        0.0534
     29 C         140.9365  140.4491  167.2915 C.ar    1  UNL1        0.0094
     30 C         140.3103  139.7850  168.4818 C.ar    1  UNL1        0.0609
     31 C         139.8839  140.6077  169.6615 C.ar    1  UNL1        0.2610
     32 O         139.2576  139.9436  170.8518 O.2     1  UNL1       -0.2670
     33 N         140.0837  142.0943  169.6508 N.ar    1  UNL1       -0.2921
     34 C         139.6573  142.9168  170.8305 C.3     1  UNL1        0.1336
     35 C         140.7100  142.7583  168.4604 C.ar    1  UNL1        0.0814
@<TRIPOS>BOND
     1    22    23    1
     2    23    24   ar
     3    24    21    1
     4    21    20    1
     5    20    19    1
     6    19     1    1
     7     1     2    1
     8     2     3    1
     9     3     4    1
    10     5     4    1
    11     5     6    1
    12     6     7    1
    13     7     9    1
    14     9    10   ar
    15    10    11   ar
    16    11    12   ar
    17    12    15    1
    18    15    16    1
    19    15    17    1
    20    15    18    1
    21    12    13   ar
    22    13    14   ar
    23     5     8    1
    24    24    25   ar
    25    25    26   ar
    26    26    27   ar
    27    27    28    1
    28    28    29   ar
    29    29    30   ar
    30    30    31   ar
    31    31    32    2
    32    31    33   ar
    33    33    34    1
    34    33    35   ar
    35    27    23   ar
    36    35    28   ar
    37     8     2    1
    38     7     5    1
    39    14     9   ar
@<TRIPOS>MOLECULE
*****
 35 39 0 0 0
SMALL
GASTEIGER

@<TRIPOS>ATOM
      1 C         144.8444  140.9053  162.4729 C.3     1  UNL1        0.0730
      2 N         143.6942  140.3476  161.6880 N.3     1  UNL1       -0.2726
      3 C         143.6540  140.1511  160.2015 C.3     1  UNL1        0.0721
      4 C         142.3172  139.5706  159.8467 C.3     1  UNL1        0.0190
      5 C         141.5311  139.4084  161.1139 C.3     1  UNL1        0.0201
      6 C         140.3051  138.8368  160.4658 C.3     1  UNL1        0.0061
      7 C         140.3452  139.0333  161.9523 C.3     1  UNL1        0.0237
      8 C         142.3822  139.8886  162.2519 C.3     1  UNL1        0.0724
      9 C         139.6837  138.9303  163.2946 C.ar    1  UNL1       -0.0225
     10 C         139.1345  140.1593  163.9564 C.ar    1  UNL1       -0.0043
     11 C         138.4730  140.0563  165.2987 C.ar    1  UNL1        0.0035
     12 C         138.3607  138.7242  165.9792 C.ar    1  UNL1        0.0714
     13 C         138.9100  137.4953  165.3174 C.ar    1  UNL1        0.0035
     14 C         139.5715  137.5983  163.9751 C.ar    1  UNL1       -0.0043
     15 C         137.6992  138.6212  167.3215 C.3     1  UNL1        0.4186
     16 F         137.0377  138.5182  168.6639 F       1  UNL1       -0.1659
     17 F         137.0121  137.3610  166.8861 F       1  UNL1       -0.1659
     18 F         138.3864  139.8815  167.7569 F       1  UNL1       -0.1659
     19 C         145.1567  142.3709  162.4071 C.3     1  UNL1        0.0294
     20 C         144.3378  143.3486  163.1968 C.3     1  UNL1        0.0666
     21 S         142.8567  143.4367  162.9764 S.3     1  UNL1       -0.0756
     22 C         143.6026  142.2554  165.9257 C.3     1  UNL1        0.1340
     23 N         142.2596  142.7653  165.4940 N.ar    1  UNL1       -0.2884
     24 C         141.9168  143.3083  164.1384 C.ar    1  UNL1        0.1932
     25 N         140.4689  143.7004  164.1486 N.ar    1  UNL1       -0.1221
     26 N         139.9170  143.3997  165.5106 N.ar    1  UNL1       -0.1282
     27 C         141.0236  142.8218  166.3421 C.ar    1  UNL1        0.1683
     28 C         140.9136  142.3783  167.7708 C.ar    1  UNL1        0.0534
     29 C         140.2537  143.2668  168.7832 C.ar    1  UNL1        0.0094
     30 C         140.1437  142.8233  170.2120 C.ar    1  UNL1        0.0609
     31 C         140.6937  141.4913  170.6282 C.ar    1  UNL1        0.2610
     32 O         140.5837  141.0478  172.0569 O.2     1  UNL1       -0.2670
     33 N         141.3537  140.6028  169.6157 N.ar    1  UNL1       -0.2921
     34 C         141.9037  139.2708  170.0320 C.3     1  UNL1        0.1336
     35 C         141.4637  141.0464  168.1870 C.ar    1  UNL1        0.0814
@<TRIPOS>BOND
     1    22    23    1
     2    23    24   ar
     3    24    21    1
     4    21    20    1
     5    20    19    1
     6    19     1    1
     7     1     2    1
     8     2     3    1
     9     3     4    1
    10     5     4    1
    11     5     6    1
    12     6     7    1
    13     7     9    1
    14     9    10   ar
    15    10    11   ar
    16    11    12   ar
    17    12    15    1
    18    15    16    1
    19    15    17    1
    20    15    18    1
    21    12    13   ar
    22    13    14   ar
    23     5     8    1
    24    24    25   ar
    25    25    26   ar
    26    26    27   ar
    27    27    28    1
    28    28    29   ar
    29    29    30   ar
    30    30    31   ar
    31    31    32    2
    32    31    33   ar
    33    33    34    1
    34    33    35   ar
    35    27    23   ar
    36    35    28   ar
    37     8     2    1
    38     7     5    1
    39    14     9   ar
@<TRIPOS>MOLECULE
*****
 35 39 0 0 0
SMALL
GASTEIGER

@<TRIPOS>ATOM
      1 C         142.6927  144.0099  161.1391 C.3     1  UNL1        0.0730
      2 N         141.4744  144.3011  161.9642 N.3     1  UNL1       -0.2726
      3 C         140.2456  145.0237  161.4975 C.3     1  UNL1        0.0721
      4 C         139.2827  145.0900  162.6457 C.3     1  UNL1        0.0190
      5 C         139.9164  144.4084  163.8221 C.3     1  UNL1        0.0201
      6 C         138.7710  144.6268  164.7656 C.3     1  UNL1        0.0061
      7 C         139.9998  143.9042  165.2324 C.3     1  UNL1        0.0237
      8 C         141.2710  143.9208  163.4009 C.3     1  UNL1        0.0724
      9 C         140.7574  143.1958  166.3160 C.ar    1  UNL1       -0.0225
     10 C         140.2017  143.1431  167.7083 C.ar    1  UNL1       -0.0043
     11 C         140.9593  142.4348  168.7919 C.ar    1  UNL1        0.0035
     12 C         142.2727  141.7792  168.4832 C.ar    1  UNL1        0.0714
     13 C         142.8284  141.8319  167.0910 C.ar    1  UNL1        0.0035
     14 C         142.0708  142.5402  166.0073 C.ar    1  UNL1       -0.0043
     15 C         143.0303  141.0709  169.5669 C.3     1  UNL1        0.4186
     16 F         143.7879  140.3625  170.6506 F       1  UNL1       -0.1659
     17 F         144.0517  142.1693  169.5708 F       1  UNL1       -0.1659
     18 F         142.0088  139.9724  169.5630 F       1  UNL1       -0.1659
     19 C         143.9617  143.5677  161.8055 C.3     1  UNL1        0.0294
     20 C         144.4938  142.1862  161.5640 C.3     1  UNL1        0.0666
     21 S         143.5454  141.0393  161.3769 S.3     1  UNL1       -0.0756
     22 C         140.4684  140.7805  162.4329 C.3     1  UNL1        0.1340
     23 N         141.6699  140.1273  163.0491 N.ar    1  UNL1       -0.2884
     24 C         143.0843  140.2463  162.5637 C.ar    1  UNL1        0.1932
     25 N         143.9565  139.4329  163.4735 N.ar    1  UNL1       -0.1221
     26 N         143.0813  138.8113  164.5212 N.ar    1  UNL1       -0.1282
     27 C         141.6681  139.2405  164.2589 C.ar    1  UNL1        0.1683
     28 C         140.4644  138.8511  165.0649 C.ar    1  UNL1        0.0534
     29 C         139.5315  137.7924  164.5561 C.ar    1  UNL1        0.0094
     30 C         138.3279  137.4031  165.3621 C.ar    1  UNL1        0.0609
     31 C         138.0572  138.0725  166.6769 C.ar    1  UNL1        0.2610
     32 O         136.8535  137.6832  167.4829 O.2     1  UNL1       -0.2670
     33 N         138.9900  139.1313  167.1857 N.ar    1  UNL1       -0.2921
     34 C         138.7192  139.8006  168.5005 C.3     1  UNL1        0.1336
     35 C         140.1937  139.5205  166.3796 C.ar    1  UNL1        0.0814
@<TRIPOS>BOND
     1    22    23    1
     2    23    24   ar
     3    24    21    1
     4    21    20    1
     5    20    19    1
     6    19     1    1
     7     1     2    1
     8     2     3    1
     9     3     4    1
    10     5     4    1
    11     5     6    1
    12     6     7    1
    13     7     9    1
    14     9    10   ar
    15    10    11   ar
    16    11    12   ar
    17    12    15    1
    18    15    16    1
    19    15    17    1
    20    15    18    1
    21    12    13   ar
    22    13    14   ar
    23     5     8    1
    24    24    25   ar
    25    25    26   ar
    26    26    27   ar
    27    27    28    1
    28    28    29   ar
    29    29    30   ar
    30    30    31   ar
    31    31    32    2
    32    31    33   ar
    33    33    34    1
    34    33    35   ar
    35    27    23   ar
    36    35    28   ar
    37     8     2    1
    38     7     5    1
    39    14     9   ar
