@<TRIPOS>MOLECULE
*****
 34 38 0 0 0
SMALL
GASTEIGER

@<TRIPOS>ATOM
      1 N         138.9163  145.6079  162.1277 N.3     1  UNL1       -0.2985
      2 H         138.3027  144.9929  161.5932 H       1  UNL1        0.1232
      3 C         139.3161  144.8548  163.3618 C.3     1  UNL1        0.0543
      4 C         138.4295  144.5446  164.5313 C.3     1  UNL1        0.0160
      5 C         139.2381  143.7778  165.5353 C.3     1  UNL1        0.0055
      6 C         140.6244  143.6141  164.9864 C.3     1  UNL1        0.0202
      7 C         141.8973  143.6106  164.1929 C.3     1  UNL1        0.0057
      8 C         140.6726  144.2797  163.6430 C.3     1  UNL1        0.0185
      9 C         141.1669  142.8480  166.1563 C.ar    1  UNL1       -0.0228
     10 C         142.4792  142.1309  166.0399 C.ar    1  UNL1       -0.0043
     11 C         143.0217  141.3648  167.2098 C.ar    1  UNL1        0.0035
     12 C         142.2518  141.3158  168.4963 C.ar    1  UNL1        0.0714
     13 C         140.9395  142.0329  168.6128 C.ar    1  UNL1        0.0035
     14 C         140.3970  142.7990  167.4428 C.ar    1  UNL1       -0.0043
     15 C         142.7943  140.5497  169.6663 C.3     1  UNL1        0.4186
     16 F         143.3368  139.7837  170.8362 F       1  UNL1       -0.1659
     17 F         141.7334  139.5068  169.4753 F       1  UNL1       -0.1659
     18 F         143.8553  141.5927  169.8573 F       1  UNL1       -0.1659
     19 C         139.9666  146.1032  161.1781 C.3     1  UNL1        0.0694
     20 C         140.2175  145.3751  159.8909 C.3     1  UNL1        0.0292
     21 C         140.9079  144.0436  159.9046 C.3     1  UNL1        0.0666
     22 S         140.1133  142.7849  159.7200 S.3     1  UNL1       -0.0756
     23 C         138.5302  141.0324  162.8002 C.ar    1  UNL1        0.2029
     24 N         137.3876  141.8842  162.3324 N.ar    1  UNL1       -0.1250
     25 N         137.8415  142.6443  161.1217 N.ar    1  UNL1       -0.1220
     26 C         139.2648  142.2623  160.8411 C.ar    1  UNL1        0.1933
     27 N         139.6904  141.2661  161.8786 N.ar    1  UNL1       -0.2860
     28 C         141.0392  140.6174  161.9770 C.3     1  UNL1        0.1341
     29 C         138.8381  137.7850  162.7015 C.3     1  UNL1        0.0556
     30 C         138.6568  138.6163  163.9368 C.ar    1  UNL1        0.1001
     31 N         138.5852  138.1009  165.3438 N.ar    1  UNL1       -0.2085
     32 C         138.3995  139.2750  166.2585 C.ar    1  UNL1        0.2849
     33 O         138.3563  140.5160  165.4171 O.2     1  UNL1       -0.4283
     34 C         138.5153  140.1090  163.9822 C.ar    1  UNL1        0.1964
@<TRIPOS>BOND
     1    29    30    1
     2    30    31   ar
     3    31    32   ar
     4    32    33   ar
     5    33    34   ar
     6    34    23    1
     7    23    24   ar
     8    24    25   ar
     9    25    26   ar
    10    26    22    1
    11    22    21    1
    12    21    20    1
    13    20    19    1
    14    19     1    1
    15     3     1    1
    16     3     4    1
    17     4     5    1
    18     5     6    1
    19     6     9    1
    20     9    10   ar
    21    10    11   ar
    22    11    12   ar
    23    12    15    1
    24    15    16    1
    25    15    17    1
    26    15    18    1
    27    12    13   ar
    28    13    14   ar
    29     6     7    1
    30     7     8    1
    31    26    27   ar
    32    27    28    1
    33    34    30   ar
    34    27    23   ar
    35     8     3    1
    36     8     6    1
    37    14     9   ar
    38     1     2    1
@<TRIPOS>MOLECULE
*****
 34 38 0 0 0
SMALL
GASTEIGER

@<TRIPOS>ATOM
      1 N         138.8213  137.3044  163.0074 N.3     1  UNL1       -0.2985
      2 H         139.3644  136.4745  162.7692 H       1  UNL1        0.1232
      3 C         139.6149  138.0624  164.0299 C.3     1  UNL1        0.0543
      4 C         141.0793  137.8966  164.3097 C.3     1  UNL1        0.0160
      5 C         141.4528  138.8510  165.4049 C.3     1  UNL1        0.0055
      6 C         140.2194  139.6067  165.8020 C.3     1  UNL1        0.0202
      7 C         138.8480  140.1883  165.9778 C.3     1  UNL1        0.0057
      8 C         139.0835  139.1193  164.9522 C.3     1  UNL1        0.0185
      9 C         140.8797  140.4396  166.8605 C.ar    1  UNL1       -0.0228
     10 C         142.0458  139.8906  167.6279 C.ar    1  UNL1       -0.0043
     11 C         142.7061  140.7234  168.6863 C.ar    1  UNL1        0.0035
     12 C         142.2003  142.1053  168.9774 C.ar    1  UNL1        0.0714
     13 C         141.0342  142.6543  168.2100 C.ar    1  UNL1        0.0035
     14 C         140.3739  141.8214  167.1515 C.ar    1  UNL1       -0.0043
     15 C         142.8606  142.9382  170.0359 C.3     1  UNL1        0.4186
     16 F         143.5209  143.7710  171.0943 F       1  UNL1       -0.1659
     17 F         141.5904  143.7151  170.2169 F       1  UNL1       -0.1659
     18 F         144.1308  142.1612  169.8548 F       1  UNL1       -0.1659
     19 C         138.4443  137.9615  161.7127 C.3     1  UNL1        0.0694
     20 C         137.7125  139.2709  161.7213 C.3     1  UNL1        0.0292
     21 C         137.4541  139.9941  160.4328 C.3     1  UNL1        0.0666
     22 S         138.5960  140.5952  159.6682 S.3     1  UNL1       -0.0756
     23 C         140.6242  143.4873  161.2768 C.ar    1  UNL1        0.2029
     24 N         139.6848  144.2501  160.3904 N.ar    1  UNL1       -0.1250
     25 N         138.8108  143.2596  159.6799 N.ar    1  UNL1       -0.1220
     26 C         139.2099  141.8845  160.1272 C.ar    1  UNL1        0.1933
     27 N         140.3307  142.0253  161.1141 N.ar    1  UNL1       -0.2860
     28 C         141.0343  140.9014  161.8153 C.3     1  UNL1        0.1341
     29 C         140.1760  144.5188  164.3403 C.3     1  UNL1        0.0556
     30 C         141.4669  144.5562  163.5773 C.ar    1  UNL1        0.1001
     31 N         142.7786  145.0743  164.0885 N.ar    1  UNL1       -0.2085
     32 C         143.7951  144.9204  162.9964 C.ar    1  UNL1        0.2849
     33 O         143.1118  144.3071  161.8102 O.2     1  UNL1       -0.4283
     34 C         141.6729  144.0821  162.1692 C.ar    1  UNL1        0.1964
@<TRIPOS>BOND
     1    29    30    1
     2    30    31   ar
     3    31    32   ar
     4    32    33   ar
     5    33    34   ar
     6    34    23    1
     7    23    24   ar
     8    24    25   ar
     9    25    26   ar
    10    26    22    1
    11    22    21    1
    12    21    20    1
    13    20    19    1
    14    19     1    1
    15     3     1    1
    16     3     4    1
    17     4     5    1
    18     5     6    1
    19     6     9    1
    20     9    10   ar
    21    10    11   ar
    22    11    12   ar
    23    12    15    1
    24    15    16    1
    25    15    17    1
    26    15    18    1
    27    12    13   ar
    28    13    14   ar
    29     6     7    1
    30     7     8    1
    31    26    27   ar
    32    27    28    1
    33    34    30   ar
    34    27    23   ar
    35     8     3    1
    36     8     6    1
    37    14     9   ar
    38     1     2    1
@<TRIPOS>MOLECULE
*****
 34 38 0 0 0
SMALL
GASTEIGER

@<TRIPOS>ATOM
      1 N         138.8000  137.4377  162.8156 N.3     1  UNL1       -0.2985
      2 H         139.2287  136.5184  162.7084 H       1  UNL1        0.1232
      3 C         139.5734  138.1544  163.8824 C.3     1  UNL1        0.0543
      4 C         140.9882  137.8670  164.2895 C.3     1  UNL1        0.0160
      5 C         141.3569  138.8193  165.3882 C.3     1  UNL1        0.0055
      6 C         140.1700  139.6953  165.6601 C.3     1  UNL1        0.0202
      7 C         138.8483  140.4031  165.7043 C.3     1  UNL1        0.0057
      8 C         139.0677  139.2843  164.7295 C.3     1  UNL1        0.0185
      9 C         140.8151  140.4997  166.7495 C.ar    1  UNL1       -0.0228
     10 C         142.2972  140.7302  166.7345 C.ar    1  UNL1       -0.0043
     11 C         142.9422  141.5345  167.8239 C.ar    1  UNL1        0.0035
     12 C         142.1052  142.1085  168.9285 C.ar    1  UNL1        0.0714
     13 C         140.6231  141.8780  168.9436 C.ar    1  UNL1        0.0035
     14 C         139.9780  141.0736  167.8541 C.ar    1  UNL1       -0.0043
     15 C         142.7502  142.9128  170.0179 C.3     1  UNL1        0.4186
     16 F         143.3953  143.7172  171.1073 F       1  UNL1       -0.1659
     17 F         143.9713  142.0456  169.9352 F       1  UNL1       -0.1659
     18 F         141.5291  143.7800  170.1006 F       1  UNL1       -0.1659
     19 C         138.6937  138.0287  161.4411 C.3     1  UNL1        0.0694
     20 C         137.5310  138.9095  161.0912 C.3     1  UNL1        0.0292
     21 C         137.4906  140.3273  161.5791 C.3     1  UNL1        0.0666
     22 S         138.5239  141.3102  161.1141 S.3     1  UNL1       -0.0756
     23 C         141.7929  141.9126  163.1180 C.ar    1  UNL1        0.2029
     24 N         140.8527  142.8570  163.8066 N.ar    1  UNL1       -0.1250
     25 N         139.5137  142.7463  163.1397 N.ar    1  UNL1       -0.1220
     26 C         139.6263  141.7334  162.0390 C.ar    1  UNL1        0.1933
     27 N         141.0350  141.2182  162.0256 N.ar    1  UNL1       -0.2860
     28 C         141.5885  140.1893  161.0849 C.3     1  UNL1        0.1341
     29 C         143.9892  144.2533  163.7073 C.3     1  UNL1        0.0556
     30 C         144.2470  142.7759  163.7324 C.ar    1  UNL1        0.1001
     31 N         145.5596  142.1148  164.0329 N.ar    1  UNL1       -0.2085
     32 C         145.3613  140.6305  163.9477 C.ar    1  UNL1        0.2849
     33 O         143.9262  140.3741  163.5946 O.2     1  UNL1       -0.4283
     34 C         143.2375  141.7000  163.4616 C.ar    1  UNL1        0.1964
@<TRIPOS>BOND
     1    29    30    1
     2    30    31   ar
     3    31    32   ar
     4    32    33   ar
     5    33    34   ar
     6    34    23    1
     7    23    24   ar
     8    24    25   ar
     9    25    26   ar
    10    26    22    1
    11    22    21    1
    12    21    20    1
    13    20    19    1
    14    19     1    1
    15     3     1    1
    16     3     4    1
    17     4     5    1
    18     5     6    1
    19     6     9    1
    20     9    10   ar
    21    10    11   ar
    22    11    12   ar
    23    12    15    1
    24    15    16    1
    25    15    17    1
    26    15    18    1
    27    12    13   ar
    28    13    14   ar
    29     6     7    1
    30     7     8    1
    31    26    27   ar
    32    27    28    1
    33    34    30   ar
    34    27    23   ar
    35     8     3    1
    36     8     6    1
    37    14     9   ar
    38     1     2    1
@<TRIPOS>MOLECULE
*****
 34 38 0 0 0
SMALL
GASTEIGER

@<TRIPOS>ATOM
      1 N         140.6597  146.2946  162.3552 N.3     1  UNL1       -0.2985
      2 H         140.0528  146.9227  162.8821 H       1  UNL1        0.1232
      3 C         141.1250  145.2378  163.3126 C.3     1  UNL1        0.0543
      4 C         142.5392  144.7707  163.4910 C.3     1  UNL1        0.0160
      5 C         142.5459  143.7068  164.5484 C.3     1  UNL1        0.0055
      6 C         141.1360  143.5165  165.0236 C.3     1  UNL1        0.0202
      7 C         139.6601  143.5500  165.2892 C.3     1  UNL1        0.0057
      8 C         140.2578  144.4627  164.2598 C.3     1  UNL1        0.0185
      9 C         141.4513  142.4456  166.0254 C.ar    1  UNL1       -0.0228
     10 C         142.4762  141.3980  165.7060 C.ar    1  UNL1       -0.0043
     11 C         142.7916  140.3271  166.7078 C.ar    1  UNL1        0.0035
     12 C         142.0819  140.3038  168.0293 C.ar    1  UNL1        0.0714
     13 C         141.0570  141.3514  168.3487 C.ar    1  UNL1        0.0035
     14 C         140.7417  142.4223  167.3468 C.ar    1  UNL1       -0.0043
     15 C         142.3973  139.2329  169.0311 C.3     1  UNL1        0.4186
     16 F         142.7126  138.1620  170.0330 F       1  UNL1       -0.1659
     17 F         143.1992  138.5008  167.9962 F       1  UNL1       -0.1659
     18 F         141.5954  139.9650  170.0660 F       1  UNL1       -0.1659
     19 C         139.9094  145.9060  161.1159 C.3     1  UNL1        0.0694
     20 C         140.6524  145.3840  159.9219 C.3     1  UNL1        0.0292
     21 C         140.0101  144.3687  159.0238 C.3     1  UNL1        0.0666
     22 S         140.8093  143.2062  158.5139 S.3     1  UNL1       -0.0756
     23 C         143.8108  142.1218  160.7230 C.ar    1  UNL1        0.2029
     24 N         144.5166  142.5934  159.4863 N.ar    1  UNL1       -0.1250
     25 N         143.4782  143.0570  158.5083 N.ar    1  UNL1       -0.1220
     26 C         142.1305  142.8720  159.1405 C.ar    1  UNL1        0.1933
     27 N         142.3361  142.2940  160.5093 N.ar    1  UNL1       -0.2860
     28 C         141.2566  141.9488  161.4919 C.3     1  UNL1        0.1341
     29 C         143.5680  139.0596  161.8248 C.3     1  UNL1        0.0556
     30 C         144.3533  140.1667  162.4633 C.ar    1  UNL1        0.1001
     31 N         145.1649  140.0606  163.7203 N.ar    1  UNL1       -0.2085
     32 C         145.7780  141.4025  163.9908 C.ar    1  UNL1        0.2849
     33 O         145.3454  142.3380  162.9009 O.2     1  UNL1       -0.4283
     34 C         144.4649  141.5742  161.9569 C.ar    1  UNL1        0.1964
@<TRIPOS>BOND
     1    29    30    1
     2    30    31   ar
     3    31    32   ar
     4    32    33   ar
     5    33    34   ar
     6    34    23    1
     7    23    24   ar
     8    24    25   ar
     9    25    26   ar
    10    26    22    1
    11    22    21    1
    12    21    20    1
    13    20    19    1
    14    19     1    1
    15     3     1    1
    16     3     4    1
    17     4     5    1
    18     5     6    1
    19     6     9    1
    20     9    10   ar
    21    10    11   ar
    22    11    12   ar
    23    12    15    1
    24    15    16    1
    25    15    17    1
    26    15    18    1
    27    12    13   ar
    28    13    14   ar
    29     6     7    1
    30     7     8    1
    31    26    27   ar
    32    27    28    1
    33    34    30   ar
    34    27    23   ar
    35     8     3    1
    36     8     6    1
    37    14     9   ar
    38     1     2    1
@<TRIPOS>MOLECULE
*****
 34 38 0 0 0
SMALL
GASTEIGER

@<TRIPOS>ATOM
      1 N         143.6497  143.9277  161.7804 N.3     1  UNL1       -0.2985
      2 H         143.3185  144.8894  161.8568 H       1  UNL1        0.1232
      3 C         143.3098  143.2486  163.0739 C.3     1  UNL1        0.0543
      4 C         144.2079  142.3328  163.8515 C.3     1  UNL1        0.0160
      5 C         143.4652  141.8843  165.0751 C.3     1  UNL1        0.0055
      6 C         142.1081  142.5230  165.0538 C.3     1  UNL1        0.0202
      7 C         140.8514  143.2888  164.7639 C.3     1  UNL1        0.0057
      8 C         142.0120  143.3662  163.8169 C.3     1  UNL1        0.0185
      9 C         141.6281  141.9143  166.3380 C.ar    1  UNL1       -0.0228
     10 C         142.1267  140.5642  166.7605 C.ar    1  UNL1       -0.0043
     11 C         141.6467  139.9556  168.0447 C.ar    1  UNL1        0.0035
     12 C         140.6681  140.6971  168.9065 C.ar    1  UNL1        0.0714
     13 C         140.1696  142.0473  168.4840 C.ar    1  UNL1        0.0035
     14 C         140.6496  142.6559  167.1997 C.ar    1  UNL1       -0.0043
     15 C         140.1882  140.0885  170.1907 C.3     1  UNL1        0.4186
     16 F         139.7082  139.4799  171.4749 F       1  UNL1       -0.1659
     17 F         141.3346  139.1216  170.1609 F       1  UNL1       -0.1659
     18 F         139.0418  141.0554  170.2205 F       1  UNL1       -0.1659
     19 C         143.1161  143.3875  160.4868 C.3     1  UNL1        0.0694
     20 C         142.0983  144.1693  159.7103 C.3     1  UNL1        0.0292
     21 C         140.6725  144.2125  160.1739 C.3     1  UNL1        0.0666
     22 S         139.7770  143.0289  159.9563 S.3     1  UNL1       -0.0756
     23 C         138.4558  141.0494  163.0225 C.ar    1  UNL1        0.2029
     24 N         137.3046  141.9734  162.7561 N.ar    1  UNL1       -0.1250
     25 N         137.6594  142.8274  161.5751 N.ar    1  UNL1       -0.1220
     26 C         139.0299  142.4312  161.1115 C.ar    1  UNL1        0.1933
     27 N         139.5221  141.3324  162.0061 N.ar    1  UNL1       -0.2860
     28 C         140.8478  140.6383  161.9025 C.3     1  UNL1        0.1341
     29 C         138.7051  137.8223  162.6065 C.3     1  UNL1        0.0556
     30 C         138.6426  138.5394  163.9224 C.ar    1  UNL1        0.1001
     31 N         138.6838  137.8991  165.2784 N.ar    1  UNL1       -0.2085
     32 C         138.5947  138.9867  166.3074 C.ar    1  UNL1        0.2849
     33 O         138.4985  140.2991  165.5877 O.2     1  UNL1       -0.4283
     34 C         138.5281  140.0227  164.1137 C.ar    1  UNL1        0.1964
@<TRIPOS>BOND
     1    29    30    1
     2    30    31   ar
     3    31    32   ar
     4    32    33   ar
     5    33    34   ar
     6    34    23    1
     7    23    24   ar
     8    24    25   ar
     9    25    26   ar
    10    26    22    1
    11    22    21    1
    12    21    20    1
    13    20    19    1
    14    19     1    1
    15     3     1    1
    16     3     4    1
    17     4     5    1
    18     5     6    1
    19     6     9    1
    20     9    10   ar
    21    10    11   ar
    22    11    12   ar
    23    12    15    1
    24    15    16    1
    25    15    17    1
    26    15    18    1
    27    12    13   ar
    28    13    14   ar
    29     6     7    1
    30     7     8    1
    31    26    27   ar
    32    27    28    1
    33    34    30   ar
    34    27    23   ar
    35     8     3    1
    36     8     6    1
    37    14     9   ar
    38     1     2    1
@<TRIPOS>MOLECULE
*****
 34 38 0 0 0
SMALL
GASTEIGER

@<TRIPOS>ATOM
      1 N         137.2628  139.9953  161.8896 N.3     1  UNL1       -0.2985
      2 H         136.3191  139.7244  162.1660 H       1  UNL1        0.1232
      3 C         138.1517  139.7323  163.0689 C.3     1  UNL1        0.0543
      4 C         138.8990  138.4610  163.3436 C.3     1  UNL1        0.0160
      5 C         139.6585  138.6375  164.6250 C.3     1  UNL1        0.0055
      6 C         139.3806  140.0178  165.1423 C.3     1  UNL1        0.0202
      7 C         138.9240  141.4226  165.4030 C.3     1  UNL1        0.0057
      8 C         138.4494  140.6944  164.1805 C.3     1  UNL1        0.0185
      9 C         140.2356  139.9005  166.3691 C.ar    1  UNL1       -0.0228
     10 C         139.6267  140.0827  167.7279 C.ar    1  UNL1       -0.0043
     11 C         140.4816  139.9655  168.9547 C.ar    1  UNL1        0.0035
     12 C         141.9456  139.6660  168.8230 C.ar    1  UNL1        0.0714
     13 C         142.5545  139.4839  167.4643 C.ar    1  UNL1        0.0035
     14 C         141.6995  139.6011  166.2373 C.ar    1  UNL1       -0.0043
     15 C         142.8006  139.5488  170.0499 C.3     1  UNL1        0.4186
     16 F         143.6555  139.4316  171.2767 F       1  UNL1       -0.1659
     17 F         143.4008  140.8926  169.7600 F       1  UNL1       -0.1659
     18 F         142.2003  138.2051  170.3397 F       1  UNL1       -0.1659
     19 C         137.5394  139.3234  160.5774 C.3     1  UNL1        0.0694
     20 C         138.6280  139.8408  159.6844 C.3     1  UNL1        0.0292
     21 C         138.3005  140.8083  158.5859 C.3     1  UNL1        0.0666
     22 S         138.3604  142.2846  158.8443 S.3     1  UNL1       -0.0756
     23 C         140.2770  143.5251  161.9833 C.ar    1  UNL1        0.2029
     24 N         138.8555  143.6352  162.4494 N.ar    1  UNL1       -0.1250
     25 N         137.9645  143.1839  161.3303 N.ar    1  UNL1       -0.1220
     26 C         138.8354  142.7949  160.1725 C.ar    1  UNL1        0.1933
     27 N         140.2646  143.0058  160.5761 N.ar    1  UNL1       -0.2860
     28 C         141.4697  142.7435  159.7225 C.3     1  UNL1        0.1341
     29 C         142.4524  141.4091  163.1830 C.3     1  UNL1        0.0556
     30 C         142.4967  142.9006  163.3353 C.ar    1  UNL1        0.1001
     31 N         143.5487  143.6815  164.0659 N.ar    1  UNL1       -0.2085
     32 C         143.1989  145.1366  163.9659 C.ar    1  UNL1        0.2849
     33 O         141.9308  145.2552  163.1736 O.2     1  UNL1       -0.4283
     34 C         141.4968  143.8733  162.7839 C.ar    1  UNL1        0.1964
@<TRIPOS>BOND
     1    29    30    1
     2    30    31   ar
     3    31    32   ar
     4    32    33   ar
     5    33    34   ar
     6    34    23    1
     7    23    24   ar
     8    24    25   ar
     9    25    26   ar
    10    26    22    1
    11    22    21    1
    12    21    20    1
    13    20    19    1
    14    19     1    1
    15     3     1    1
    16     3     4    1
    17     4     5    1
    18     5     6    1
    19     6     9    1
    20     9    10   ar
    21    10    11   ar
    22    11    12   ar
    23    12    15    1
    24    15    16    1
    25    15    17    1
    26    15    18    1
    27    12    13   ar
    28    13    14   ar
    29     6     7    1
    30     7     8    1
    31    26    27   ar
    32    27    28    1
    33    34    30   ar
    34    27    23   ar
    35     8     3    1
    36     8     6    1
    37    14     9   ar
    38     1     2    1
@<TRIPOS>MOLECULE
*****
 34 38 0 0 0
SMALL
GASTEIGER

@<TRIPOS>ATOM
      1 N         139.2388  137.6359  160.9715 N.3     1  UNL1       -0.2985
      2 H         139.6840  136.7472  160.7425 H       1  UNL1        0.1232
      3 C         139.5821  137.9365  162.4004 C.3     1  UNL1        0.0543
      4 C         140.6895  137.3069  163.1924 C.3     1  UNL1        0.0160
      5 C         140.6701  137.9008  164.5696 C.3     1  UNL1        0.0055
      6 C         139.5507  138.8976  164.6289 C.3     1  UNL1        0.0202
      7 C         138.3844  139.8100  164.3897 C.3     1  UNL1        0.0057
      8 C         138.8783  138.9196  163.2882 C.3     1  UNL1        0.0185
      9 C         139.7750  139.3008  166.0561 C.ar    1  UNL1       -0.0228
     10 C         138.6260  139.3175  167.0203 C.ar    1  UNL1       -0.0043
     11 C         138.8504  139.7207  168.4475 C.ar    1  UNL1        0.0035
     12 C         140.2239  140.1072  168.9107 C.ar    1  UNL1        0.0714
     13 C         141.3729  140.0904  167.9465 C.ar    1  UNL1        0.0035
     14 C         141.1484  139.6872  166.5192 C.ar    1  UNL1       -0.0043
     15 C         140.4482  140.5104  170.3379 C.3     1  UNL1        0.4186
     16 F         140.6726  140.9136  171.7652 F       1  UNL1       -0.1659
     17 F         139.4430  141.6131  170.1845 F       1  UNL1       -0.1659
     18 F         141.4535  139.4077  170.4914 F       1  UNL1       -0.1659
     19 C         139.6194  138.6024  159.8894 C.3     1  UNL1        0.0694
     20 C         140.9468  138.4749  159.2026 C.3     1  UNL1        0.0292
     21 C         142.1942  138.2779  160.0120 C.3     1  UNL1        0.0666
     22 S         142.9914  139.4660  160.4623 S.3     1  UNL1       -0.0756
     23 C         141.1702  142.5035  162.0506 C.ar    1  UNL1        0.2029
     24 N         141.5792  141.7385  163.2743 N.ar    1  UNL1       -0.1250
     25 N         142.3113  140.5076  162.8283 N.ar    1  UNL1       -0.1220
     26 C         142.3546  140.5118  161.3289 C.ar    1  UNL1        0.1933
     27 N         141.6494  141.7453  160.8482 N.ar    1  UNL1       -0.2860
     28 C         141.4572  142.1497  159.4167 C.3     1  UNL1        0.1341
     29 C         137.9379  142.8432  162.3443 C.3     1  UNL1        0.0556
     30 C         138.9288  143.9553  162.1674 C.ar    1  UNL1        0.1001
     31 N         138.6081  145.4188  162.0944 N.ar    1  UNL1       -0.2085
     32 C         139.8955  146.1670  161.9143 C.ar    1  UNL1        0.2849
     33 O         141.0120  145.1661  161.8760 O.2     1  UNL1       -0.4283
     34 C         140.4146  143.7991  162.0324 C.ar    1  UNL1        0.1964
@<TRIPOS>BOND
     1    29    30    1
     2    30    31   ar
     3    31    32   ar
     4    32    33   ar
     5    33    34   ar
     6    34    23    1
     7    23    24   ar
     8    24    25   ar
     9    25    26   ar
    10    26    22    1
    11    22    21    1
    12    21    20    1
    13    20    19    1
    14    19     1    1
    15     3     1    1
    16     3     4    1
    17     4     5    1
    18     5     6    1
    19     6     9    1
    20     9    10   ar
    21    10    11   ar
    22    11    12   ar
    23    12    15    1
    24    15    16    1
    25    15    17    1
    26    15    18    1
    27    12    13   ar
    28    13    14   ar
    29     6     7    1
    30     7     8    1
    31    26    27   ar
    32    27    28    1
    33    34    30   ar
    34    27    23   ar
    35     8     3    1
    36     8     6    1
    37    14     9   ar
    38     1     2    1
@<TRIPOS>MOLECULE
*****
 34 38 0 0 0
SMALL
GASTEIGER

@<TRIPOS>ATOM
      1 N         142.3193  137.2070  161.3033 N.3     1  UNL1       -0.2985
      2 H         143.2444  136.7908  161.4100 H       1  UNL1        0.1232
      3 C         141.9014  137.6874  162.6614 C.3     1  UNL1        0.0543
      4 C         140.5338  137.5514  163.2625 C.3     1  UNL1        0.0160
      5 C         140.5650  138.1682  164.6295 C.3     1  UNL1        0.0055
      6 C         141.9517  138.6854  164.8732 C.3     1  UNL1        0.0202
      7 C         143.3950  139.0915  164.8292 C.3     1  UNL1        0.0057
      8 C         142.7777  138.3883  163.6569 C.3     1  UNL1        0.0185
      9 C         141.6810  139.2173  166.2494 C.ar    1  UNL1       -0.0228
     10 C         140.3341  139.7880  166.5814 C.ar    1  UNL1       -0.0043
     11 C         140.0635  140.3199  167.9576 C.ar    1  UNL1        0.0035
     12 C         141.1398  140.2811  169.0018 C.ar    1  UNL1        0.0714
     13 C         142.4867  139.7105  168.6697 C.ar    1  UNL1        0.0035
     14 C         142.7573  139.1786  167.2935 C.ar    1  UNL1       -0.0043
     15 C         140.8691  140.8130  170.3779 C.3     1  UNL1        0.4186
     16 F         140.5985  141.3449  171.7541 F       1  UNL1       -0.1659
     17 F         142.2758  140.4843  170.7816 F       1  UNL1       -0.1659
     18 F         139.4624  141.1418  169.9742 F       1  UNL1       -0.1659
     19 C         142.4089  138.1742  160.1603 C.3     1  UNL1        0.0694
     20 C         143.3615  139.3308  160.2294 C.3     1  UNL1        0.0292
     21 C         143.5251  140.2393  159.0471 C.3     1  UNL1        0.0666
     22 S         142.5951  141.4012  158.8598 S.3     1  UNL1       -0.0756
     23 C         141.4765  143.4587  161.9550 C.ar    1  UNL1        0.2029
     24 N         142.6127  144.2954  161.4460 N.ar    1  UNL1       -0.1250
     25 N         143.1700  143.6265  160.2246 N.ar    1  UNL1       -0.1220
     26 C         142.3782  142.3763  159.9787 C.ar    1  UNL1        0.1933
     27 N         141.3316  142.2727  161.0482 N.ar    1  UNL1       -0.2860
     28 C         140.3180  141.1757  161.1865 C.3     1  UNL1        0.1341
     29 C         142.1981  142.6809  165.0411 C.3     1  UNL1        0.0556
     30 C         140.9650  143.3984  164.5780 C.ar    1  UNL1        0.1001
     31 N         139.8469  143.8843  165.4520 N.ar    1  UNL1       -0.2085
     32 C         138.8244  144.5422  164.5737 C.ar    1  UNL1        0.2849
     33 O         139.3103  144.4628  163.1569 O.2     1  UNL1       -0.4283
     34 C         140.6333  143.7559  163.1594 C.ar    1  UNL1        0.1964
@<TRIPOS>BOND
     1    29    30    1
     2    30    31   ar
     3    31    32   ar
     4    32    33   ar
     5    33    34   ar
     6    34    23    1
     7    23    24   ar
     8    24    25   ar
     9    25    26   ar
    10    26    22    1
    11    22    21    1
    12    21    20    1
    13    20    19    1
    14    19     1    1
    15     3     1    1
    16     3     4    1
    17     4     5    1
    18     5     6    1
    19     6     9    1
    20     9    10   ar
    21    10    11   ar
    22    11    12   ar
    23    12    15    1
    24    15    16    1
    25    15    17    1
    26    15    18    1
    27    12    13   ar
    28    13    14   ar
    29     6     7    1
    30     7     8    1
    31    26    27   ar
    32    27    28    1
    33    34    30   ar
    34    27    23   ar
    35     8     3    1
    36     8     6    1
    37    14     9   ar
    38     1     2    1
@<TRIPOS>MOLECULE
*****
 34 38 0 0 0
SMALL
GASTEIGER

@<TRIPOS>ATOM
      1 N         140.5180  146.1422  162.4848 N.3     1  UNL1       -0.2985
      2 H         139.6736  146.5490  162.8870 H       1  UNL1        0.1232
      3 C         140.9988  145.0999  163.4505 C.3     1  UNL1        0.0543
      4 C         142.4202  144.6580  163.6354 C.3     1  UNL1        0.0160
      5 C         142.4423  143.6015  164.6999 C.3     1  UNL1        0.0055
      6 C         141.0346  143.3904  165.1729 C.3     1  UNL1        0.0202
      7 C         139.5577  143.4007  165.4348 C.3     1  UNL1        0.0057
      8 C         140.1424  144.3165  164.4007 C.3     1  UNL1        0.0185
      9 C         141.3655  142.3317  166.1827 C.ar    1  UNL1       -0.0228
     10 C         142.0401  141.0647  165.7474 C.ar    1  UNL1       -0.0043
     11 C         142.3710  140.0060  166.7572 C.ar    1  UNL1        0.0035
     12 C         142.0273  140.2144  168.2024 C.ar    1  UNL1        0.0714
     13 C         141.3527  141.4814  168.6377 C.ar    1  UNL1        0.0035
     14 C         141.0218  142.5401  167.6278 C.ar    1  UNL1       -0.0043
     15 C         142.3582  139.1557  169.2122 C.3     1  UNL1        0.4186
     16 F         142.6891  138.0970  170.2220 F       1  UNL1       -0.1659
     17 F         141.5442  139.8827  170.2411 F       1  UNL1       -0.1659
     18 F         143.1721  138.4286  168.1832 F       1  UNL1       -0.1659
     19 C         140.1847  145.7600  161.0732 C.3     1  UNL1        0.0694
     20 C         140.4805  144.3740  160.5815 C.3     1  UNL1        0.0292
     21 C         139.6959  143.8000  159.4393 C.3     1  UNL1        0.0666
     22 S         139.9578  142.3963  158.9800 S.3     1  UNL1       -0.0756
     23 C         139.5006  139.4905  161.5123 C.ar    1  UNL1        0.2029
     24 N         138.2120  139.4146  160.7483 N.ar    1  UNL1       -0.1250
     25 N         138.2264  140.4938  159.7068 N.ar    1  UNL1       -0.1220
     26 C         139.5240  141.2368  159.8270 C.ar    1  UNL1        0.1933
     27 N         140.3115  140.6166  160.9429 N.ar    1  UNL1       -0.2860
     28 C         141.6711  141.0471  161.4077 C.3     1  UNL1        0.1341
     29 C         138.6572  139.8609  164.6430 C.3     1  UNL1        0.0556
     30 C         139.5194  138.7673  164.0856 C.ar    1  UNL1        0.1001
     31 N         140.1453  137.6518  164.8693 N.ar    1  UNL1       -0.2085
     32 C         140.9196  136.7923  163.9147 C.ar    1  UNL1        0.2849
     33 O         140.7724  137.3764  162.5410 O.2     1  UNL1       -0.4283
     34 C         139.9070  138.5970  162.6466 C.ar    1  UNL1        0.1964
@<TRIPOS>BOND
     1    29    30    1
     2    30    31   ar
     3    31    32   ar
     4    32    33   ar
     5    33    34   ar
     6    34    23    1
     7    23    24   ar
     8    24    25   ar
     9    25    26   ar
    10    26    22    1
    11    22    21    1
    12    21    20    1
    13    20    19    1
    14    19     1    1
    15     3     1    1
    16     3     4    1
    17     4     5    1
    18     5     6    1
    19     6     9    1
    20     9    10   ar
    21    10    11   ar
    22    11    12   ar
    23    12    15    1
    24    15    16    1
    25    15    17    1
    26    15    18    1
    27    12    13   ar
    28    13    14   ar
    29     6     7    1
    30     7     8    1
    31    26    27   ar
    32    27    28    1
    33    34    30   ar
    34    27    23   ar
    35     8     3    1
    36     8     6    1
    37    14     9   ar
    38     1     2    1
