@<TRIPOS>MOLECULE
*****
 40 45 0 0 0
SMALL
GASTEIGER

@<TRIPOS>ATOM
      1 C         139.5010  140.2664  164.2242 C.3     1  UNL1        0.0832
      2 C         138.5352  139.4478  165.0285 C.3     1  UNL1        0.0374
      3 C         138.6484  139.4092  166.5237 C.3     1  UNL1        0.0738
      4 N         139.7275  140.1892  167.2145 N.3     1  UNL1       -0.2734
      5 C         140.6933  141.0078  166.4102 C.3     1  UNL1        0.0828
      6 C         140.5801  141.0464  164.9150 C.3     1  UNL1        0.1103
      7 O         137.0896  141.4992  162.9338 O.2     1  UNL1       -0.2684
      8 C         138.1821  140.9214  162.0837 C.2     1  UNL1        0.2669
      9 N         139.3878  140.3050  162.7289 N.am    1  UNL1       -0.3006
     10 H         140.1049  139.9258  162.1710 H       1  UNL1        0.1497
     11 C         138.0689  140.9601  160.5885 C.ar    1  UNL1        0.1761
     12 C         138.5847  142.0474  159.6931 C.ar    1  UNL1        0.0673
     13 C         138.2546  141.6775  158.2774 C.ar    1  UNL1        0.1792
     14 O         137.5347  140.3616  158.2979 O.2     1  UNL1       -0.3532
     15 N         137.4200  139.9183  159.7263 N.ar    1  UNL1       -0.0723
     16 C         138.5860  142.4822  157.0557 C.ar    1  UNL1        0.0648
     17 C         139.9544  143.0760  156.8972 C.ar    1  UNL1        0.0077
     18 C         140.2859  143.8807  155.6755 C.ar    1  UNL1        0.0299
     19 C         139.2490  144.0916  154.6123 C.ar    1  UNL1        0.1424
     20 F         139.5805  144.8963  153.3906 F       1  UNL1       -0.2041
     21 C         137.8807  143.4979  154.7708 C.ar    1  UNL1        0.0593
     22 C         137.5493  142.6932  155.9925 C.ar    1  UNL1        0.1453
     23 F         136.1809  142.0994  156.1510 F       1  UNL1       -0.2040
     24 C         139.8407  140.1505  168.7098 C.3     1  UNL1        0.0575
     25 C         140.9267  139.7981  169.6826 C.3     1  UNL1        0.0160
     26 C         140.0006  140.0959  170.8244 C.3     1  UNL1        0.0028
     27 C         138.9146  140.4483  169.8516 C.3     1  UNL1        0.0160
     28 C         141.5459  141.8650  164.1106 C.2     1  UNL1        0.2252
     29 O         142.2564  141.2514  162.9407 O.2     1  UNL1       -0.2750
     30 N         141.8013  143.2972  164.4761 N.am    1  UNL1       -0.3010
     31 H         141.3349  143.6999  165.2439 H       1  UNL1        0.1497
     32 C         142.7671  144.1158  163.6717 C.3     1  UNL1        0.1089
     33 C         144.0526  144.7554  163.2376 C.3     1  UNL1        0.0274
     34 C         144.0230  143.8845  164.4586 C.3     1  UNL1        0.0274
     35 C         141.8466  144.6314  162.6055 C.ar    1  UNL1        0.1549
     36 N         142.1988  144.4503  161.1588 N.ar    1  UNL1       -0.2276
     37 C         141.2783  144.9659  160.0924 C.ar    1  UNL1        0.1019
     38 C         140.0057  145.6627  160.4730 C.ar    1  UNL1        0.0413
     39 C         139.6535  145.8438  161.9197 C.ar    1  UNL1        0.1019
     40 N         140.5739  145.3282  162.9860 N.ar    1  UNL1       -0.2276
@<TRIPOS>BOND
     1     7     8    2
     2     8     9   am
     3     1     9    1
     4     1     2    1
     5     2     3    1
     6     3     4    1
     7     4    24    1
     8    24    25    1
     9    25    26    1
    10    26    27    1
    11     4     5    1
    12     5     6    1
    13     6    28    1
    14    28    29    2
    15    28    30   am
    16    30    32    1
    17    32    35    1
    18    35    36   ar
    19    36    37   ar
    20    37    38   ar
    21    38    39   ar
    22    39    40   ar
    23    32    33    1
    24    33    34    1
    25     8    11    1
    26    11    12   ar
    27    12    13   ar
    28    13    16    1
    29    16    17   ar
    30    17    18   ar
    31    18    19   ar
    32    19    20    1
    33    19    21   ar
    34    21    22   ar
    35    22    23    1
    36    13    14   ar
    37    14    15   ar
    38     6     1    1
    39    34    32    1
    40    15    11   ar
    41    27    24    1
    42    40    35   ar
    43    22    16   ar
    44     9    10    1
    45    30    31    1
@<TRIPOS>MOLECULE
*****
 40 45 0 0 0
SMALL
GASTEIGER

@<TRIPOS>ATOM
      1 C         142.4295  144.0325  157.4724 C.3     1  UNL1        0.0832
      2 C         142.9925  144.1199  156.0849 C.3     1  UNL1        0.0374
      3 C         142.4322  145.1119  155.1093 C.3     1  UNL1        0.0738
      4 N         141.3089  146.0165  155.5212 N.3     1  UNL1       -0.2734
      5 C         140.7458  145.9292  156.9087 C.3     1  UNL1        0.0828
      6 C         141.3062  144.9371  157.8843 C.3     1  UNL1        0.1103
      7 O         141.2217  141.2949  157.6885 O.2     1  UNL1       -0.2684
      8 C         142.3859  141.6716  158.5562 C.2     1  UNL1        0.2669
      9 N         142.9898  143.0404  158.4481 N.am    1  UNL1       -0.3006
     10 H         143.7539  143.2877  159.0175 H       1  UNL1        0.1497
     11 C         142.9462  140.6796  159.5318 C.ar    1  UNL1        0.1761
     12 C         142.6880  140.6536  161.0092 C.ar    1  UNL1        0.0673
     13 C         143.4453  139.4973  161.5919 C.ar    1  UNL1        0.1792
     14 O         144.1715  138.8086  160.4745 O.2     1  UNL1       -0.3532
     15 N         143.8630  139.5393  159.2014 N.ar    1  UNL1       -0.0723
     16 C         143.4717  139.0994  163.0379 C.ar    1  UNL1        0.0648
     17 C         142.3598  138.2695  163.6079 C.ar    1  UNL1        0.0077
     18 C         142.3862  137.8716  165.0539 C.ar    1  UNL1        0.0299
     19 C         143.5245  138.3038  165.9299 C.ar    1  UNL1        0.1424
     20 F         143.5509  137.9060  167.3759 F       1  UNL1       -0.2041
     21 C         144.6363  139.1337  165.3600 C.ar    1  UNL1        0.0593
     22 C         144.6099  139.5315  163.9140 C.ar    1  UNL1        0.1453
     23 F         145.7218  140.3615  163.3440 F       1  UNL1       -0.2040
     24 C         140.7485  147.0086  154.5455 C.3     1  UNL1        0.0575
     25 C         140.9165  147.2629  153.0768 C.3     1  UNL1        0.0160
     26 C         139.9561  148.4116  153.1657 C.3     1  UNL1        0.0028
     27 C         139.7881  148.1573  154.6345 C.3     1  UNL1        0.0160
     28 C         140.7431  144.8497  159.2720 C.2     1  UNL1        0.2252
     29 O         139.4902  144.0648  159.5249 O.2     1  UNL1       -0.2750
     30 N         141.4331  145.5472  160.4066 N.am    1  UNL1       -0.3010
     31 H         142.2555  146.0624  160.2406 H       1  UNL1        0.1497
     32 C         140.8701  145.4598  161.7942 C.3     1  UNL1        0.1089
     33 C         139.9266  145.6391  162.9464 C.3     1  UNL1        0.0274
     34 C         139.5787  146.1974  161.5982 C.3     1  UNL1        0.0274
     35 C         141.9660  144.6920  162.4720 C.ar    1  UNL1        0.1549
     36 N         143.1997  144.3128  161.7077 N.ar    1  UNL1       -0.2276
     37 C         144.2956  143.5449  162.3855 C.ar    1  UNL1        0.1019
     38 C         144.1577  143.1563  163.8277 C.ar    1  UNL1        0.0413
     39 C         142.9241  143.5355  164.5920 C.ar    1  UNL1        0.1019
     40 N         141.8281  144.3033  163.9142 N.ar    1  UNL1       -0.2276
@<TRIPOS>BOND
     1     7     8    2
     2     8     9   am
     3     1     9    1
     4     1     2    1
     5     2     3    1
     6     3     4    1
     7     4    24    1
     8    24    25    1
     9    25    26    1
    10    26    27    1
    11     4     5    1
    12     5     6    1
    13     6    28    1
    14    28    29    2
    15    28    30   am
    16    30    32    1
    17    32    35    1
    18    35    36   ar
    19    36    37   ar
    20    37    38   ar
    21    38    39   ar
    22    39    40   ar
    23    32    33    1
    24    33    34    1
    25     8    11    1
    26    11    12   ar
    27    12    13   ar
    28    13    16    1
    29    16    17   ar
    30    17    18   ar
    31    18    19   ar
    32    19    20    1
    33    19    21   ar
    34    21    22   ar
    35    22    23    1
    36    13    14   ar
    37    14    15   ar
    38     6     1    1
    39    34    32    1
    40    15    11   ar
    41    27    24    1
    42    40    35   ar
    43    22    16   ar
    44     9    10    1
    45    30    31    1
@<TRIPOS>MOLECULE
*****
 40 45 0 0 0
SMALL
GASTEIGER

@<TRIPOS>ATOM
      1 C         142.3241  139.3055  164.2615 C.3     1  UNL1        0.0832
      2 C         143.0913  138.3724  165.1506 C.3     1  UNL1        0.0374
      3 C         143.1648  138.6330  166.6260 C.3     1  UNL1        0.0738
      4 N         142.4711  139.8268  167.2122 N.3     1  UNL1       -0.2734
      5 C         141.7038  140.7599  166.3230 C.3     1  UNL1        0.0828
      6 C         141.6303  140.4993  164.8477 C.3     1  UNL1        0.1103
      7 O         144.6776  139.9297  162.5090 O.2     1  UNL1       -0.2684
      8 C         143.4273  139.3570  161.9098 C.2     1  UNL1        0.2669
      9 N         142.2506  139.0449  162.7861 N.am    1  UNL1       -0.3006
     10 H         141.4300  138.6690  162.3929 H       1  UNL1        0.1497
     11 C         143.3539  139.0964  160.4345 C.ar    1  UNL1        0.1761
     12 C         142.6629  137.9387  159.7770 C.ar    1  UNL1        0.0673
     13 C         142.8404  138.0745  158.2937 C.ar    1  UNL1        0.1792
     14 O         143.6412  139.3162  158.0346 O.2     1  UNL1       -0.3532
     15 N         143.9585  139.9477  159.3577 N.ar    1  UNL1       -0.0723
     16 C         142.3104  137.1339  157.2525 C.ar    1  UNL1        0.0648
     17 C         143.0873  135.9037  156.8879 C.ar    1  UNL1        0.0077
     18 C         142.5572  134.9630  155.8466 C.ar    1  UNL1        0.0299
     19 C         141.2502  135.2527  155.1700 C.ar    1  UNL1        0.1424
     20 F         140.7201  134.3120  154.1287 F       1  UNL1       -0.2041
     21 C         140.4733  136.4828  155.5346 C.ar    1  UNL1        0.0593
     22 C         141.0034  137.4234  156.5758 C.ar    1  UNL1        0.1453
     23 F         140.2265  138.6537  156.9405 F       1  UNL1       -0.2040
     24 C         142.5446  140.0874  168.6876 C.3     1  UNL1        0.0575
     25 C         142.9595  141.2499  169.5400 C.3     1  UNL1        0.0160
     26 C         142.6485  140.4559  170.7740 C.3     1  UNL1        0.0028
     27 C         142.2336  139.2935  169.9216 C.3     1  UNL1        0.0160
     28 C         140.8631  141.4324  163.9585 C.2     1  UNL1        0.2252
     29 O         141.5683  142.1711  162.8599 O.2     1  UNL1       -0.2750
     30 N         139.3905  141.6268  164.1679 N.am    1  UNL1       -0.3010
     31 H         138.9276  141.1419  164.8890 H       1  UNL1        0.1497
     32 C         138.6232  142.5598  163.2788 C.3     1  UNL1        0.1089
     33 C         137.9333  143.8031  162.8010 C.3     1  UNL1        0.0274
     34 C         138.5795  143.7770  164.1544 C.3     1  UNL1        0.0274
     35 C         138.4005  141.6668  162.0944 C.ar    1  UNL1        0.1549
     36 N         138.7162  142.1598  160.7134 N.ar    1  UNL1       -0.2276
     37 C         138.4935  141.2668  159.5289 C.ar    1  UNL1        0.1019
     38 C         137.9549  139.8807  159.7255 C.ar    1  UNL1        0.0413
     39 C         137.6391  139.3877  161.1066 C.ar    1  UNL1        0.1019
     40 N         137.8619  140.2807  162.2910 N.ar    1  UNL1       -0.2276
@<TRIPOS>BOND
     1     7     8    2
     2     8     9   am
     3     1     9    1
     4     1     2    1
     5     2     3    1
     6     3     4    1
     7     4    24    1
     8    24    25    1
     9    25    26    1
    10    26    27    1
    11     4     5    1
    12     5     6    1
    13     6    28    1
    14    28    29    2
    15    28    30   am
    16    30    32    1
    17    32    35    1
    18    35    36   ar
    19    36    37   ar
    20    37    38   ar
    21    38    39   ar
    22    39    40   ar
    23    32    33    1
    24    33    34    1
    25     8    11    1
    26    11    12   ar
    27    12    13   ar
    28    13    16    1
    29    16    17   ar
    30    17    18   ar
    31    18    19   ar
    32    19    20    1
    33    19    21   ar
    34    21    22   ar
    35    22    23    1
    36    13    14   ar
    37    14    15   ar
    38     6     1    1
    39    34    32    1
    40    15    11   ar
    41    27    24    1
    42    40    35   ar
    43    22    16   ar
    44     9    10    1
    45    30    31    1
@<TRIPOS>MOLECULE
*****
 40 45 0 0 0
SMALL
GASTEIGER

@<TRIPOS>ATOM
      1 C         142.2934  139.1016  161.3300 C.3     1  UNL1        0.0832
      2 C         142.5851  137.7476  160.7543 C.3     1  UNL1        0.0374
      3 C         142.8348  137.5961  159.2830 C.3     1  UNL1        0.0738
      4 N         142.7927  138.7987  158.3874 N.3     1  UNL1       -0.2734
      5 C         142.5010  140.1527  158.9632 C.3     1  UNL1        0.0828
      6 C         142.2513  140.3042  160.4344 C.3     1  UNL1        0.1103
      7 O         144.5939  139.0507  163.2548 O.2     1  UNL1       -0.2684
      8 C         143.1940  139.2276  163.7638 C.2     1  UNL1        0.2669
      9 N         142.0437  139.2531  162.8013 N.am    1  UNL1       -0.3006
     10 H         141.1249  139.3692  163.1353 H       1  UNL1        0.1497
     11 C         142.9444  139.3791  165.2350 C.ar    1  UNL1        0.1761
     12 C         142.0535  140.4006  165.8776 C.ar    1  UNL1        0.0673
     13 C         142.1003  140.1885  167.3618 C.ar    1  UNL1        0.1792
     14 O         143.0202  139.0359  167.6365 O.2     1  UNL1       -0.3532
     15 N         143.5418  138.5357  166.3221 N.ar    1  UNL1       -0.0723
     16 C         141.3577  140.9885  168.3906 C.ar    1  UNL1        0.0648
     17 C         140.0534  140.4851  168.9341 C.ar    1  UNL1        0.0077
     18 C         139.3108  141.2851  169.9629 C.ar    1  UNL1        0.0299
     19 C         139.8725  142.5885  170.4483 C.ar    1  UNL1        0.1424
     20 F         139.1299  143.3885  171.4771 F       1  UNL1       -0.2041
     21 C         141.1767  143.0919  169.9049 C.ar    1  UNL1        0.0593
     22 C         141.9193  142.2919  168.8760 C.ar    1  UNL1        0.1453
     23 F         143.2237  142.7953  168.3325 F       1  UNL1       -0.2040
     24 C         143.0424  138.6472  156.9161 C.3     1  UNL1        0.0575
     25 C         143.3023  137.4899  155.9980 C.3     1  UNL1        0.0160
     26 C         143.3955  138.4331  154.8354 C.3     1  UNL1        0.0028
     27 C         143.1356  139.5904  155.7535 C.3     1  UNL1        0.0160
     28 C         141.9595  141.6582  161.0102 C.2     1  UNL1        0.2252
     29 O         142.8255  142.2110  162.1031 O.2     1  UNL1       -0.2750
     30 N         140.8017  142.4595  160.4930 N.am    1  UNL1       -0.3010
     31 H         140.2334  142.0967  159.7757 H       1  UNL1        0.1497
     32 C         140.5099  143.8135  161.0687 C.3     1  UNL1        0.1089
     33 C         140.5349  145.3019  161.2534 C.3     1  UNL1        0.0274
     34 C         141.3208  144.6706  160.1425 C.3     1  UNL1        0.0274
     35 C         139.5978  143.4267  162.1949 C.ar    1  UNL1        0.1549
     36 N         138.3978  142.5675  161.9268 N.ar    1  UNL1       -0.2276
     37 C         137.4856  142.1806  163.0531 C.ar    1  UNL1        0.1019
     38 C         137.7735  142.6529  164.4473 C.ar    1  UNL1        0.0413
     39 C         138.9735  143.5121  164.7154 C.ar    1  UNL1        0.1019
     40 N         139.8857  143.8990  163.5893 N.ar    1  UNL1       -0.2276
@<TRIPOS>BOND
     1     7     8    2
     2     8     9   am
     3     1     9    1
     4     1     2    1
     5     2     3    1
     6     3     4    1
     7     4    24    1
     8    24    25    1
     9    25    26    1
    10    26    27    1
    11     4     5    1
    12     5     6    1
    13     6    28    1
    14    28    29    2
    15    28    30   am
    16    30    32    1
    17    32    35    1
    18    35    36   ar
    19    36    37   ar
    20    37    38   ar
    21    38    39   ar
    22    39    40   ar
    23    32    33    1
    24    33    34    1
    25     8    11    1
    26    11    12   ar
    27    12    13   ar
    28    13    16    1
    29    16    17   ar
    30    17    18   ar
    31    18    19   ar
    32    19    20    1
    33    19    21   ar
    34    21    22   ar
    35    22    23    1
    36    13    14   ar
    37    14    15   ar
    38     6     1    1
    39    34    32    1
    40    15    11   ar
    41    27    24    1
    42    40    35   ar
    43    22    16   ar
    44     9    10    1
    45    30    31    1
@<TRIPOS>MOLECULE
*****
 40 45 0 0 0
SMALL
GASTEIGER

@<TRIPOS>ATOM
      1 C         140.9737  143.7916  161.0484 C.3     1  UNL1        0.0832
      2 C         140.6339  145.2158  160.7228 C.3     1  UNL1        0.0374
      3 C         140.4027  145.6247  159.2983 C.3     1  UNL1        0.0738
      4 N         140.5113  144.6095  158.1994 N.3     1  UNL1       -0.2734
      5 C         140.8512  143.1853  158.5251 C.3     1  UNL1        0.0828
      6 C         141.0824  142.7763  159.9496 C.3     1  UNL1        0.1103
      7 O         143.6475  144.2557  162.3272 O.2     1  UNL1       -0.2684
      8 C         142.5418  143.6146  163.1124 C.2     1  UNL1        0.2669
      9 N         141.2049  143.3825  162.4730 N.am    1  UNL1       -0.3006
     10 H         140.4792  142.9617  162.9883 H       1  UNL1        0.1497
     11 C         142.7731  143.2056  164.5368 C.ar    1  UNL1        0.1761
     12 C         141.8017  142.4700  165.4117 C.ar    1  UNL1        0.0673
     13 C         142.4446  142.2701  166.7522 C.ar    1  UNL1        0.1792
     14 O         143.8132  142.8823  166.7057 O.2     1  UNL1       -0.3532
     15 N         144.0162  143.4604  165.3366 N.ar    1  UNL1       -0.0723
     16 C         141.8272  141.5794  167.9319 C.ar    1  UNL1        0.0648
     17 C         142.3789  140.2676  168.4062 C.ar    1  UNL1        0.0077
     18 C         141.7615  139.5770  169.5859 C.ar    1  UNL1        0.0299
     19 C         140.5925  140.1980  170.2914 C.ar    1  UNL1        0.1424
     20 F         139.9752  139.5073  171.4711 F       1  UNL1       -0.2041
     21 C         140.0409  141.5097  169.8171 C.ar    1  UNL1        0.0593
     22 C         140.6582  142.2004  168.6374 C.ar    1  UNL1        0.1453
     23 F         140.1066  143.5122  168.1631 F       1  UNL1       -0.2040
     24 C         140.2801  145.0186  156.7749 C.3     1  UNL1        0.0575
     25 C         140.1030  146.3266  156.0623 C.3     1  UNL1        0.0160
     26 C         139.9532  145.5969  154.7603 C.3     1  UNL1        0.0028
     27 C         140.1303  144.2889  155.4729 C.3     1  UNL1        0.0160
     28 C         141.4222  141.3521  160.2753 C.2     1  UNL1        0.2252
     29 O         140.3565  140.4220  160.7745 O.2     1  UNL1       -0.2750
     30 N         142.8278  140.8579  160.1017 N.am    1  UNL1       -0.3010
     31 H         143.5273  141.4684  159.7741 H       1  UNL1        0.1497
     32 C         143.1677  139.4337  160.4274 C.3     1  UNL1        0.1089
     33 C         143.3498  137.9543  160.2597 C.3     1  UNL1        0.0274
     34 C         142.8315  138.7801  159.1198 C.3     1  UNL1        0.0274
     35 C         143.6220  139.5926  161.8481 C.ar    1  UNL1        0.1549
     36 N         144.7706  140.5017  162.1709 N.ar    1  UNL1       -0.2276
     37 C         145.2250  140.6607  163.5917 C.ar    1  UNL1        0.1019
     38 C         144.5307  139.9105  164.6894 C.ar    1  UNL1        0.0413
     39 C         143.3821  139.0015  164.3666 C.ar    1  UNL1        0.1019
     40 N         142.9277  138.8425  162.9459 N.ar    1  UNL1       -0.2276
@<TRIPOS>BOND
     1     7     8    2
     2     8     9   am
     3     1     9    1
     4     1     2    1
     5     2     3    1
     6     3     4    1
     7     4    24    1
     8    24    25    1
     9    25    26    1
    10    26    27    1
    11     4     5    1
    12     5     6    1
    13     6    28    1
    14    28    29    2
    15    28    30   am
    16    30    32    1
    17    32    35    1
    18    35    36   ar
    19    36    37   ar
    20    37    38   ar
    21    38    39   ar
    22    39    40   ar
    23    32    33    1
    24    33    34    1
    25     8    11    1
    26    11    12   ar
    27    12    13   ar
    28    13    16    1
    29    16    17   ar
    30    17    18   ar
    31    18    19   ar
    32    19    20    1
    33    19    21   ar
    34    21    22   ar
    35    22    23    1
    36    13    14   ar
    37    14    15   ar
    38     6     1    1
    39    34    32    1
    40    15    11   ar
    41    27    24    1
    42    40    35   ar
    43    22    16   ar
    44     9    10    1
    45    30    31    1
@<TRIPOS>MOLECULE
*****
 40 45 0 0 0
SMALL
GASTEIGER

@<TRIPOS>ATOM
      1 C         142.3515  139.0513  164.2181 C.3     1  UNL1        0.0832
      2 C         143.3842  138.3879  165.0803 C.3     1  UNL1        0.0374
      3 C         143.4362  138.6833  166.5500 C.3     1  UNL1        0.0738
      4 N         142.4555  139.6420  167.1575 N.3     1  UNL1       -0.2734
      5 C         141.4228  140.3054  166.2953 C.3     1  UNL1        0.0828
      6 C         141.3708  140.0100  164.8256 C.3     1  UNL1        0.1103
      7 O         144.5124  140.0734  162.4054 O.2     1  UNL1       -0.2684
      8 C         143.3799  139.2670  161.8420 C.2     1  UNL1        0.2669
      9 N         142.2994  138.7560  162.7483 N.am    1  UNL1       -0.3006
     10 H         141.5562  138.2268  162.3786 H       1  UNL1        0.1497
     11 C         143.3279  138.9718  160.3723 C.ar    1  UNL1        0.1761
     12 C         142.6600  137.7903  159.7334 C.ar    1  UNL1        0.0673
     13 C         142.8540  137.8944  158.2497 C.ar    1  UNL1        0.1792
     14 O         143.6417  139.1403  157.9715 O.2     1  UNL1       -0.3532
     15 N         143.9346  139.8061  159.2834 N.ar    1  UNL1       -0.0723
     16 C         142.3489  136.9233  157.2241 C.ar    1  UNL1        0.0648
     17 C         143.0771  135.6329  156.9905 C.ar    1  UNL1        0.0077
     18 C         142.5720  134.6617  155.9649 C.ar    1  UNL1        0.0299
     19 C         141.3387  134.9810  155.1731 C.ar    1  UNL1        0.1424
     20 F         140.8337  134.0098  154.1475 F       1  UNL1       -0.2041
     21 C         140.6106  136.2713  155.4067 C.ar    1  UNL1        0.0593
     22 C         141.1157  137.2425  156.4322 C.ar    1  UNL1        0.1453
     23 F         140.3875  138.5329  156.6659 F       1  UNL1       -0.2040
     24 C         142.5076  139.9373  168.6272 C.3     1  UNL1        0.0575
     25 C         142.3382  139.1276  169.8785 C.3     1  UNL1        0.0160
     26 C         142.5812  140.3550  170.7057 C.3     1  UNL1        0.0028
     27 C         142.7505  141.1648  169.4545 C.3     1  UNL1        0.0160
     28 C         140.3380  140.6734  163.9634 C.2     1  UNL1        0.2252
     29 O         139.6274  139.8852  162.9033 O.2     1  UNL1       -0.2750
     30 N         140.0159  142.1250  164.1612 N.am    1  UNL1       -0.3010
     31 H         140.4823  142.6423  164.8570 H       1  UNL1        0.1497
     32 C         138.9832  142.7884  163.2991 C.3     1  UNL1        0.1089
     33 C         137.6447  143.2579  162.8114 C.3     1  UNL1        0.0274
     34 C         137.7439  142.4605  164.0780 C.3     1  UNL1        0.0274
     35 C         139.8638  143.3467  162.2207 C.ar    1  UNL1        0.1549
     36 N         139.2710  143.7545  160.9046 N.ar    1  UNL1       -0.2276
     37 C         140.1516  144.3129  159.8261 C.ar    1  UNL1        0.1019
     38 C         141.6249  144.4633  160.0639 C.ar    1  UNL1        0.0413
     39 C         142.2177  144.0554  161.3801 C.ar    1  UNL1        0.1019
     40 N         141.3372  143.4971  162.4585 N.ar    1  UNL1       -0.2276
@<TRIPOS>BOND
     1     7     8    2
     2     8     9   am
     3     1     9    1
     4     1     2    1
     5     2     3    1
     6     3     4    1
     7     4    24    1
     8    24    25    1
     9    25    26    1
    10    26    27    1
    11     4     5    1
    12     5     6    1
    13     6    28    1
    14    28    29    2
    15    28    30   am
    16    30    32    1
    17    32    35    1
    18    35    36   ar
    19    36    37   ar
    20    37    38   ar
    21    38    39   ar
    22    39    40   ar
    23    32    33    1
    24    33    34    1
    25     8    11    1
    26    11    12   ar
    27    12    13   ar
    28    13    16    1
    29    16    17   ar
    30    17    18   ar
    31    18    19   ar
    32    19    20    1
    33    19    21   ar
    34    21    22   ar
    35    22    23    1
    36    13    14   ar
    37    14    15   ar
    38     6     1    1
    39    34    32    1
    40    15    11   ar
    41    27    24    1
    42    40    35   ar
    43    22    16   ar
    44     9    10    1
    45    30    31    1
@<TRIPOS>MOLECULE
*****
 40 45 0 0 0
SMALL
GASTEIGER

@<TRIPOS>ATOM
      1 C         143.0894  141.0057  159.8363 C.3     1  UNL1        0.0832
      2 C         143.6406  139.9803  158.8904 C.3     1  UNL1        0.0374
      3 C         144.4089  140.4150  157.6777 C.3     1  UNL1        0.0738
      4 N         144.6260  141.8751  157.4109 N.3     1  UNL1       -0.2734
      5 C         144.0748  142.9004  158.3568 C.3     1  UNL1        0.0828
      6 C         143.3065  142.4657  159.5695 C.3     1  UNL1        0.1103
      7 O         144.5411  139.8779  162.2071 O.2     1  UNL1       -0.2684
      8 C         143.0469  140.0071  162.2345 C.2     1  UNL1        0.2669
      9 N         142.3210  140.5710  161.0491 N.am    1  UNL1       -0.3006
     10 H         141.3404  140.6558  161.0670 H       1  UNL1        0.1497
     11 C         142.2786  139.5724  163.4472 C.ar    1  UNL1        0.1761
     12 C         142.3887  140.1662  164.8203 C.ar    1  UNL1        0.0673
     13 C         141.4435  139.4284  165.7215 C.ar    1  UNL1        0.1792
     14 O         140.7492  138.3787  164.9054 O.2     1  UNL1       -0.3532
     15 N         141.2654  138.4677  163.4998 N.ar    1  UNL1       -0.0723
     16 C         141.2300  139.6938  167.1823 C.ar    1  UNL1        0.0648
     17 C         142.3928  139.6561  168.1292 C.ar    1  UNL1        0.0077
     18 C         142.1793  139.9215  169.5900 C.ar    1  UNL1        0.0299
     19 C         140.8031  140.2245  170.1040 C.ar    1  UNL1        0.1424
     20 F         140.5896  140.4898  171.5648 F       1  UNL1       -0.2041
     21 C         139.6404  140.2622  169.1571 C.ar    1  UNL1        0.0593
     22 C         139.8539  139.9968  167.6963 C.ar    1  UNL1        0.1453
     23 F         138.6911  140.0345  166.7494 F       1  UNL1       -0.2040
     24 C         145.3944  142.3097  156.1981 C.3     1  UNL1        0.0575
     25 C         145.0322  142.6902  154.7931 C.3     1  UNL1        0.0160
     26 C         146.4810  142.9244  154.4831 C.3     1  UNL1        0.0028
     27 C         146.8432  142.5439  155.8881 C.3     1  UNL1        0.0160
     28 C         142.7552  143.4911  160.5155 C.2     1  UNL1        0.2252
     29 O         142.1122  144.7361  159.9805 O.2     1  UNL1       -0.2750
     30 N         142.8470  143.2713  161.9965 N.am    1  UNL1       -0.3010
     31 H         143.2691  142.4541  162.3476 H       1  UNL1        0.1497
     32 C         142.2958  144.2965  162.9424 C.3     1  UNL1        0.1089
     33 C         142.2498  145.4477  163.9030 C.3     1  UNL1        0.0274
     34 C         143.5593  145.0151  163.3129 C.3     1  UNL1        0.0274
     35 C         140.8409  143.9341  162.9005 C.ar    1  UNL1        0.1549
     36 N         139.7981  145.0117  162.9376 N.ar    1  UNL1       -0.2276
     37 C         138.3431  144.6493  162.8957 C.ar    1  UNL1        0.1019
     38 C         137.9309  143.2092  162.8167 C.ar    1  UNL1        0.0413
     39 C         138.9737  142.1316  162.7797 C.ar    1  UNL1        0.1019
     40 N         140.4286  142.4940  162.8216 N.ar    1  UNL1       -0.2276
@<TRIPOS>BOND
     1     7     8    2
     2     8     9   am
     3     1     9    1
     4     1     2    1
     5     2     3    1
     6     3     4    1
     7     4    24    1
     8    24    25    1
     9    25    26    1
    10    26    27    1
    11     4     5    1
    12     5     6    1
    13     6    28    1
    14    28    29    2
    15    28    30   am
    16    30    32    1
    17    32    35    1
    18    35    36   ar
    19    36    37   ar
    20    37    38   ar
    21    38    39   ar
    22    39    40   ar
    23    32    33    1
    24    33    34    1
    25     8    11    1
    26    11    12   ar
    27    12    13   ar
    28    13    16    1
    29    16    17   ar
    30    17    18   ar
    31    18    19   ar
    32    19    20    1
    33    19    21   ar
    34    21    22   ar
    35    22    23    1
    36    13    14   ar
    37    14    15   ar
    38     6     1    1
    39    34    32    1
    40    15    11   ar
    41    27    24    1
    42    40    35   ar
    43    22    16   ar
    44     9    10    1
    45    30    31    1
@<TRIPOS>MOLECULE
*****
 40 45 0 0 0
SMALL
GASTEIGER

@<TRIPOS>ATOM
      1 C         139.5050  140.2715  164.1425 C.3     1  UNL1        0.0832
      2 C         138.7854  139.2180  164.9313 C.3     1  UNL1        0.0374
      3 C         138.9125  139.1821  166.4254 C.3     1  UNL1        0.0738
      4 N         139.7592  140.1997  167.1308 N.3     1  UNL1       -0.2734
      5 C         140.4788  141.2532  166.3420 C.3     1  UNL1        0.0828
      6 C         140.3517  141.2891  164.8479 C.3     1  UNL1        0.1103
      7 O         137.0560  141.4513  162.8734 O.2     1  UNL1       -0.2684
      8 C         138.1534  140.8974  162.0137 C.2     1  UNL1        0.2669
      9 N         139.3779  140.3074  162.6483 N.am    1  UNL1       -0.3006
     10 H         140.0981  139.9438  162.0841 H       1  UNL1        0.1497
     11 C         138.0263  140.9333  160.5196 C.ar    1  UNL1        0.1761
     12 C         138.5538  142.0077  159.6154 C.ar    1  UNL1        0.0673
     13 C         138.2029  141.6396  158.2043 C.ar    1  UNL1        0.1792
     14 O         137.4585  140.3377  158.2363 O.2     1  UNL1       -0.3532
     15 N         137.3494  139.9012  159.6672 N.ar    1  UNL1       -0.0723
     16 C         138.5375  142.4339  156.9766 C.ar    1  UNL1        0.0648
     17 C         137.4491  143.1278  156.2124 C.ar    1  UNL1        0.0077
     18 C         137.7838  143.9221  154.9848 C.ar    1  UNL1        0.0299
     19 C         139.2069  144.0225  154.5214 C.ar    1  UNL1        0.1424
     20 F         139.5415  144.8168  153.2938 F       1  UNL1       -0.2041
     21 C         140.2952  143.3287  155.2856 C.ar    1  UNL1        0.0593
     22 C         139.9605  142.5344  156.5132 C.ar    1  UNL1        0.1453
     23 F         141.0489  141.8406  157.2774 F       1  UNL1       -0.2040
     24 C         139.8863  140.1637  168.6250 C.3     1  UNL1        0.0575
     25 C         141.0023  139.8868  169.5883 C.3     1  UNL1        0.0160
     26 C         140.0659  140.1129  170.7381 C.3     1  UNL1        0.0028
     27 C         138.9499  140.3899  169.7748 C.3     1  UNL1        0.0160
     28 C         141.0713  142.3427  164.0590 C.2     1  UNL1        0.2252
     29 O         140.2919  143.3440  163.2592 O.2     1  UNL1       -0.2750
     30 N         142.5703  142.3949  164.0700 N.am    1  UNL1       -0.3010
     31 H         143.0819  141.7376  164.5950 H       1  UNL1        0.1497
     32 C         143.2900  143.4483  163.2812 C.3     1  UNL1        0.1089
     33 C         143.9610  144.7480  162.9489 C.3     1  UNL1        0.0274
     34 C         143.4000  144.5231  164.3218 C.3     1  UNL1        0.0274
     35 C         143.4298  142.7395  161.9668 C.ar    1  UNL1        0.1549
     36 N         143.6897  141.2625  161.9350 N.ar    1  UNL1       -0.2276
     37 C         143.8296  140.5536  160.6205 C.ar    1  UNL1        0.1019
     38 C         143.7096  141.3217  159.3377 C.ar    1  UNL1        0.0413
     39 C         143.4497  142.7987  159.3694 C.ar    1  UNL1        0.1019
     40 N         143.3098  143.5076  160.6839 N.ar    1  UNL1       -0.2276
@<TRIPOS>BOND
     1     7     8    2
     2     8     9   am
     3     1     9    1
     4     1     2    1
     5     2     3    1
     6     3     4    1
     7     4    24    1
     8    24    25    1
     9    25    26    1
    10    26    27    1
    11     4     5    1
    12     5     6    1
    13     6    28    1
    14    28    29    2
    15    28    30   am
    16    30    32    1
    17    32    35    1
    18    35    36   ar
    19    36    37   ar
    20    37    38   ar
    21    38    39   ar
    22    39    40   ar
    23    32    33    1
    24    33    34    1
    25     8    11    1
    26    11    12   ar
    27    12    13   ar
    28    13    16    1
    29    16    17   ar
    30    17    18   ar
    31    18    19   ar
    32    19    20    1
    33    19    21   ar
    34    21    22   ar
    35    22    23    1
    36    13    14   ar
    37    14    15   ar
    38     6     1    1
    39    34    32    1
    40    15    11   ar
    41    27    24    1
    42    40    35   ar
    43    22    16   ar
    44     9    10    1
    45    30    31    1
@<TRIPOS>MOLECULE
*****
 40 45 0 0 0
SMALL
GASTEIGER

@<TRIPOS>ATOM
      1 C         142.4144  138.9307  160.9251 C.3     1  UNL1        0.0832
      2 C         142.9860  137.6254  160.4567 C.3     1  UNL1        0.0374
      3 C         142.8496  137.2198  159.0191 C.3     1  UNL1        0.0738
      4 N         142.1417  138.1194  158.0498 N.3     1  UNL1       -0.2734
      5 C         141.5701  139.4247  158.5182 C.3     1  UNL1        0.0828
      6 C         141.7064  139.8303  159.9558 C.3     1  UNL1        0.1103
      7 O         141.1717  137.2548  163.0808 O.2     1  UNL1       -0.2684
      8 C         141.9294  138.4985  163.4406 C.2     1  UNL1        0.2669
      9 N         142.5507  139.3364  162.3628 N.am    1  UNL1       -0.3006
     10 H         143.0480  140.1526  162.5989 H       1  UNL1        0.1497
     11 C         142.0657  138.9041  164.8783 C.ar    1  UNL1        0.1761
     12 C         141.1612  139.8442  165.6187 C.ar    1  UNL1        0.0673
     13 C         141.6669  139.9620  167.0260 C.ar    1  UNL1        0.1792
     14 O         142.8840  139.0947  167.1553 O.2     1  UNL1       -0.3532
     15 N         143.1304  138.4409  165.8279 N.ar    1  UNL1       -0.0723
     16 C         141.0619  140.7999  168.1130 C.ar    1  UNL1        0.0648
     17 C         139.8757  140.2929  168.8786 C.ar    1  UNL1        0.0077
     18 C         139.2707  141.1309  169.9656 C.ar    1  UNL1        0.0299
     19 C         139.8518  142.4758  170.2872 C.ar    1  UNL1        0.1424
     20 F         139.2468  143.3138  171.3743 F       1  UNL1       -0.2041
     21 C         141.0379  142.9828  169.5217 C.ar    1  UNL1        0.0593
     22 C         141.6429  142.1448  168.4346 C.ar    1  UNL1        0.1453
     23 F         142.8291  142.6519  167.6691 F       1  UNL1       -0.2040
     24 C         142.0053  137.7137  156.6121 C.3     1  UNL1        0.0575
     25 C         142.2871  138.3705  155.2933 C.3     1  UNL1        0.0160
     26 C         141.8125  137.1399  154.5790 C.3     1  UNL1        0.0028
     27 C         141.5307  136.4831  155.8978 C.3     1  UNL1        0.0160
     28 C         141.1348  141.1357  160.4243 C.2     1  UNL1        0.2252
     29 O         140.0694  141.1521  161.4800 O.2     1  UNL1       -0.2750
     30 N         141.6286  142.4245  159.8370 N.am    1  UNL1       -0.3010
     31 H         142.3279  142.4137  159.1440 H       1  UNL1        0.1497
     32 C         141.0570  143.7298  160.3054 C.3     1  UNL1        0.1089
     33 C         140.1645  144.9333  160.3763 C.3     1  UNL1        0.0274
     34 C         139.9343  143.8899  159.3235 C.3     1  UNL1        0.0274
     35 C         141.9811  144.0232  161.4498 C.ar    1  UNL1        0.1549
     36 N         141.4445  144.6372  162.7088 N.ar    1  UNL1       -0.2276
     37 C         142.3686  144.9305  163.8534 C.ar    1  UNL1        0.1019
     38 C         143.8294  144.6099  163.7389 C.ar    1  UNL1        0.0413
     39 C         144.3661  143.9959  162.4799 C.ar    1  UNL1        0.1019
     40 N         143.4420  143.7025  161.3354 N.ar    1  UNL1       -0.2276
@<TRIPOS>BOND
     1     7     8    2
     2     8     9   am
     3     1     9    1
     4     1     2    1
     5     2     3    1
     6     3     4    1
     7     4    24    1
     8    24    25    1
     9    25    26    1
    10    26    27    1
    11     4     5    1
    12     5     6    1
    13     6    28    1
    14    28    29    2
    15    28    30   am
    16    30    32    1
    17    32    35    1
    18    35    36   ar
    19    36    37   ar
    20    37    38   ar
    21    38    39   ar
    22    39    40   ar
    23    32    33    1
    24    33    34    1
    25     8    11    1
    26    11    12   ar
    27    12    13   ar
    28    13    16    1
    29    16    17   ar
    30    17    18   ar
    31    18    19   ar
    32    19    20    1
    33    19    21   ar
    34    21    22   ar
    35    22    23    1
    36    13    14   ar
    37    14    15   ar
    38     6     1    1
    39    34    32    1
    40    15    11   ar
    41    27    24    1
    42    40    35   ar
    43    22    16   ar
    44     9    10    1
    45    30    31    1
