@<TRIPOS>MOLECULE
*****
 39 44 0 0 0
SMALL
GASTEIGER

@<TRIPOS>ATOM
      1 C         144.4633  139.7647  163.4118 C.3     1  UNL1        0.0700
      2 C         144.1425  139.4672  164.8465 C.3     1  UNL1        0.0193
      3 C         143.0083  138.5462  165.1860 C.3     1  UNL1        0.0286
      4 C         142.1948  137.9227  164.0908 C.3     1  UNL1        0.0932
      5 C         142.5156  138.2202  162.6560 C.3     1  UNL1        0.0286
      6 C         143.6499  139.1412  162.3165 C.3     1  UNL1        0.0193
      7 O         142.8067  138.4210  163.8556 O.3     1  UNL1       -0.3572
      8 C         143.8323  139.2537  163.5486 C.3     1  UNL1        0.1562
      9 N         145.5975  140.6857  163.0722 N.3     1  UNL1       -0.2926
     10 H         146.4398  140.2775  163.4778 H       1  UNL1        0.1236
     11 C         145.5566  142.1195  163.5111 C.3     1  UNL1        0.1152
     12 O         140.5008  145.6271  158.7272 O.2     1  UNL1       -0.2707
     13 C         140.9420  145.2701  160.1157 C.2     1  UNL1        0.2718
     14 C         140.1390  145.7253  161.2981 C.3     1  UNL1        0.2898
     15 O         140.5801  145.3683  162.6866 O.3     1  UNL1       -0.4628
     16 C         141.8242  144.5561  162.8927 C.ar    1  UNL1        0.1708
     17 C         142.2654  144.1991  164.2812 C.ar    1  UNL1        0.0411
     18 C         143.5095  143.3869  164.4874 C.ar    1  UNL1        0.0193
     19 C         144.3125  142.9317  163.3050 C.ar    1  UNL1        0.0765
     20 N         143.8714  143.2887  161.9165 N.ar    1  UNL1       -0.2304
     21 C         142.6272  144.1009  161.7104 C.ar    1  UNL1        0.1682
     22 N         142.1861  144.4579  160.3219 N.am    1  UNL1       -0.2639
     23 H         142.7131  144.1592  159.5458 H       1  UNL1        0.1565
     24 C         141.0606  137.0017  164.4303 C.3     1  UNL1        0.0319
     25 C         139.7092  137.5649  164.7569 C.3     1  UNL1        0.0304
     26 C         139.0282  138.4886  163.7910 C.ar    1  UNL1       -0.0014
     27 C         138.4046  137.9404  162.5417 C.ar    1  UNL1        0.0179
     28 C         137.7235  138.8641  161.5759 C.ar    1  UNL1        0.0986
     29 N         137.6661  140.3360  161.8592 N.ar    1  UNL1       -0.2423
     30 C         138.2897  140.8841  163.1084 C.ar    1  UNL1        0.0986
     31 C         138.2323  142.3560  163.3917 C.ar    1  UNL1        0.0221
     32 C         138.8560  142.9042  164.6410 C.ar    1  UNL1        0.0247
     33 C         139.5370  141.9805  165.6069 C.ar    1  UNL1        0.1527
     34 N         139.5944  140.5086  165.3235 N.ar    1  UNL1       -0.2402
     35 C         138.9708  139.9604  164.0743 C.ar    1  UNL1        0.0948
     36 C         140.1606  142.5287  166.8561 C.3     1  UNL1        0.4348
     37 F         140.7843  143.0770  168.1053 F       1  UNL1       -0.1644
     38 F         140.6401  141.1547  167.2196 F       1  UNL1       -0.1644
     39 F         139.6811  143.9027  166.4925 F       1  UNL1       -0.1644
@<TRIPOS>BOND
     1    12    13    2
     2    13    14    1
     3    14    15    1
     4    15    16    1
     5    16    17   ar
     6    17    18   ar
     7    18    19   ar
     8    19    11    1
     9    11     9    1
    10     9     1    1
    11     1     2    1
    12     2     3    1
    13     3     4    1
    14     4    24    1
    15    24    25    1
    16    25    26    1
    17    26    27   ar
    18    27    28   ar
    19    28    29   ar
    20    29    30   ar
    21    30    31   ar
    22    31    32   ar
    23    32    33   ar
    24    33    36    1
    25    36    37    1
    26    36    38    1
    27    36    39    1
    28    33    34   ar
    29    34    35   ar
    30     4     5    1
    31     5     6    1
    32     4     7    1
    33     7     8    1
    34    19    20   ar
    35    20    21   ar
    36    21    22    1
    37    22    13   am
    38    21    16   ar
    39     6     1    1
    40     8     1    1
    41    35    26   ar
    42    35    30   ar
    43     9    10    1
    44    22    23    1
@<TRIPOS>MOLECULE
*****
 39 44 0 0 0
SMALL
GASTEIGER

@<TRIPOS>ATOM
      1 C         137.8793  140.0736  162.2481 C.3     1  UNL1        0.0700
      2 C         137.7541  140.4048  163.7057 C.3     1  UNL1        0.0193
      3 C         137.7311  141.8373  164.1500 C.3     1  UNL1        0.0286
      4 C         137.8334  142.9386  163.1367 C.3     1  UNL1        0.0932
      5 C         137.9587  142.6073  161.6791 C.3     1  UNL1        0.0286
      6 C         137.9816  141.1748  161.2348 C.3     1  UNL1        0.0193
      7 O         137.8504  142.1687  162.8453 O.3     1  UNL1       -0.3572
      8 C         137.8712  140.8734  162.4435 C.3     1  UNL1        0.1562
      9 N         137.9022  138.6411  161.8038 N.3     1  UNL1       -0.2926
     10 H         137.5041  138.0905  162.5645 H       1  UNL1        0.1236
     11 C         139.2026  137.9914  161.4335 C.3     1  UNL1        0.1152
     12 O         145.9650  141.6345  162.7552 O.2     1  UNL1       -0.2707
     13 C         144.9260  140.6343  163.1676 C.2     1  UNL1        0.2718
     14 C         145.1021  139.8483  164.4329 C.3     1  UNL1        0.2898
     15 O         144.0631  138.8481  164.8453 O.3     1  UNL1       -0.4628
     16 C         142.8480  138.6339  163.9924 C.ar    1  UNL1        0.1708
     17 C         141.8090  137.6337  164.4048 C.ar    1  UNL1        0.0411
     18 C         140.5939  137.4195  163.5518 C.ar    1  UNL1        0.0193
     19 C         140.4177  138.2056  162.2864 C.ar    1  UNL1        0.0765
     20 N         141.4567  139.2058  161.8740 N.ar    1  UNL1       -0.2304
     21 C         142.6719  139.4199  162.7270 C.ar    1  UNL1        0.1682
     22 N         143.7109  140.4201  162.3147 N.am    1  UNL1       -0.2639
     23 H         143.5953  140.9360  161.4842 H       1  UNL1        0.1565
     24 C         137.8105  144.3711  163.5810 C.3     1  UNL1        0.0319
     25 C         138.9470  144.9241  164.3888 C.3     1  UNL1        0.0304
     26 C         140.3373  144.3996  164.1844 C.ar    1  UNL1       -0.0014
     27 C         141.0971  144.7533  162.9403 C.ar    1  UNL1        0.0179
     28 C         142.4874  144.2287  162.7359 C.ar    1  UNL1        0.0986
     29 N         143.1181  143.3505  163.7756 N.ar    1  UNL1       -0.2423
     30 C         142.3584  142.9968  165.0197 C.ar    1  UNL1        0.0986
     31 C         142.9891  142.1186  166.0594 C.ar    1  UNL1        0.0221
     32 C         142.2294  141.7650  167.3035 C.ar    1  UNL1        0.0247
     33 C         140.8390  142.2895  167.5079 C.ar    1  UNL1        0.1527
     34 N         140.2084  143.1677  166.4682 N.ar    1  UNL1       -0.2402
     35 C         140.9680  143.5214  165.2241 C.ar    1  UNL1        0.0948
     36 C         140.0794  141.9358  168.7520 C.3     1  UNL1        0.4348
     37 F         139.3197  141.5821  169.9961 F       1  UNL1       -0.1644
     38 F         139.9466  140.5219  168.2690 F       1  UNL1       -0.1644
     39 F         140.2121  143.3496  169.2350 F       1  UNL1       -0.1644
@<TRIPOS>BOND
     1    12    13    2
     2    13    14    1
     3    14    15    1
     4    15    16    1
     5    16    17   ar
     6    17    18   ar
     7    18    19   ar
     8    19    11    1
     9    11     9    1
    10     9     1    1
    11     1     2    1
    12     2     3    1
    13     3     4    1
    14     4    24    1
    15    24    25    1
    16    25    26    1
    17    26    27   ar
    18    27    28   ar
    19    28    29   ar
    20    29    30   ar
    21    30    31   ar
    22    31    32   ar
    23    32    33   ar
    24    33    36    1
    25    36    37    1
    26    36    38    1
    27    36    39    1
    28    33    34   ar
    29    34    35   ar
    30     4     5    1
    31     5     6    1
    32     4     7    1
    33     7     8    1
    34    19    20   ar
    35    20    21   ar
    36    21    22    1
    37    22    13   am
    38    21    16   ar
    39     6     1    1
    40     8     1    1
    41    35    26   ar
    42    35    30   ar
    43     9    10    1
    44    22    23    1
@<TRIPOS>MOLECULE
*****
 39 44 0 0 0
SMALL
GASTEIGER

@<TRIPOS>ATOM
      1 C         143.6602  143.8656  162.2805 C.3     1  UNL1        0.0700
      2 C         142.5703  143.7481  161.2567 C.3     1  UNL1        0.0193
      3 C         141.1986  144.2752  161.5576 C.3     1  UNL1        0.0286
      4 C         140.9167  144.9197  162.8825 C.3     1  UNL1        0.0932
      5 C         142.0067  145.0372  163.9063 C.3     1  UNL1        0.0286
      6 C         143.3784  144.5101  163.6053 C.3     1  UNL1        0.0193
      7 O         141.6840  144.6457  162.7632 O.3     1  UNL1       -0.3572
      8 C         142.9243  144.1692  162.4911 C.3     1  UNL1        0.1562
      9 N         145.0319  143.3386  161.9795 N.3     1  UNL1       -0.2926
     10 H         145.3586  143.8270  161.1458 H       1  UNL1        0.1236
     11 C         145.2344  141.8733  161.7303 C.3     1  UNL1        0.1152
     12 O         139.0221  137.3283  162.9552 O.2     1  UNL1       -0.2707
     13 C         140.3677  137.8327  163.3852 C.2     1  UNL1        0.2718
     14 C         140.9882  137.3265  164.6536 C.3     1  UNL1        0.2898
     15 O         142.3338  137.8309  165.0836 O.3     1  UNL1       -0.4628
     16 C         143.0589  138.8415  164.2453 C.ar    1  UNL1        0.1708
     17 C         144.4045  139.3459  164.6754 C.ar    1  UNL1        0.0411
     18 C         145.1297  140.3565  163.8371 C.ar    1  UNL1        0.0193
     19 C         144.5092  140.8627  162.5686 C.ar    1  UNL1        0.0765
     20 N         143.1636  140.3583  162.1386 N.ar    1  UNL1       -0.2304
     21 C         142.4385  139.3477  162.9770 C.ar    1  UNL1        0.1682
     22 N         141.0929  138.8433  162.5469 N.am    1  UNL1       -0.2639
     23 H         140.6857  139.1755  161.7145 H       1  UNL1        0.1565
     24 C         139.5450  145.4467  163.1835 C.3     1  UNL1        0.0319
     25 C         138.7072  144.7953  164.2435 C.3     1  UNL1        0.0304
     26 C         138.4602  143.3165  164.2008 C.ar    1  UNL1       -0.0014
     27 C         137.6331  142.7257  163.0975 C.ar    1  UNL1        0.0179
     28 C         137.3861  141.2469  163.0548 C.ar    1  UNL1        0.0986
     29 N         137.9661  140.3586  164.1152 N.ar    1  UNL1       -0.2423
     30 C         138.7932  140.9493  165.2184 C.ar    1  UNL1        0.0986
     31 C         139.3732  140.0610  166.2789 C.ar    1  UNL1        0.0221
     32 C         140.2003  140.6517  167.3822 C.ar    1  UNL1        0.0247
     33 C         140.4473  142.1306  167.4249 C.ar    1  UNL1        0.1527
     34 N         139.8672  143.0189  166.3644 N.ar    1  UNL1       -0.2402
     35 C         139.0402  142.4282  165.2612 C.ar    1  UNL1        0.0948
     36 C         141.2743  142.7213  168.5281 C.3     1  UNL1        0.4348
     37 F         142.1015  143.3119  169.6314 F       1  UNL1       -0.1644
     38 F         140.1834  143.7094  168.8169 F       1  UNL1       -0.1644
     39 F         142.3652  141.7331  168.2393 F       1  UNL1       -0.1644
@<TRIPOS>BOND
     1    12    13    2
     2    13    14    1
     3    14    15    1
     4    15    16    1
     5    16    17   ar
     6    17    18   ar
     7    18    19   ar
     8    19    11    1
     9    11     9    1
    10     9     1    1
    11     1     2    1
    12     2     3    1
    13     3     4    1
    14     4    24    1
    15    24    25    1
    16    25    26    1
    17    26    27   ar
    18    27    28   ar
    19    28    29   ar
    20    29    30   ar
    21    30    31   ar
    22    31    32   ar
    23    32    33   ar
    24    33    36    1
    25    36    37    1
    26    36    38    1
    27    36    39    1
    28    33    34   ar
    29    34    35   ar
    30     4     5    1
    31     5     6    1
    32     4     7    1
    33     7     8    1
    34    19    20   ar
    35    20    21   ar
    36    21    22    1
    37    22    13   am
    38    21    16   ar
    39     6     1    1
    40     8     1    1
    41    35    26   ar
    42    35    30   ar
    43     9    10    1
    44    22    23    1
@<TRIPOS>MOLECULE
*****
 39 44 0 0 0
SMALL
GASTEIGER

@<TRIPOS>ATOM
      1 C         139.8448  144.0977  162.1233 C.3     1  UNL1        0.0700
      2 C         141.1158  144.0409  161.3287 C.3     1  UNL1        0.0193
      3 C         142.4301  144.3213  161.9949 C.3     1  UNL1        0.0286
      4 C         142.4735  144.6587  163.4559 C.3     1  UNL1        0.0932
      5 C         141.2026  144.7155  164.2506 C.3     1  UNL1        0.0286
      6 C         139.8882  144.4351  163.5843 C.3     1  UNL1        0.0193
      7 O         141.7296  144.5127  163.1346 O.3     1  UNL1       -0.3572
      8 C         140.5411  144.2591  162.5322 C.3     1  UNL1        0.1562
      9 N         138.5305  143.8173  161.4571 N.3     1  UNL1       -0.2926
     10 H         137.8063  143.9683  162.1593 H       1  UNL1        0.1236
     11 C         138.2701  142.4710  160.8491 C.3     1  UNL1        0.1152
     12 O         137.7577  138.7503  167.6787 O.2     1  UNL1       -0.2707
     13 C         138.1155  138.7484  166.2220 C.2     1  UNL1        0.2718
     14 C         138.6603  137.5044  165.5851 C.3     1  UNL1        0.2898
     15 O         139.0181  137.5025  164.1284 O.3     1  UNL1       -0.4628
     16 C         138.8311  138.7446  163.3086 C.ar    1  UNL1        0.1708
     17 C         139.1889  138.7427  161.8519 C.ar    1  UNL1        0.0411
     18 C         139.0019  139.9848  161.0321 C.ar    1  UNL1        0.0193
     19 C         138.4571  141.2289  161.6689 C.ar    1  UNL1        0.0765
     20 N         138.0993  141.2308  163.1256 N.ar    1  UNL1       -0.2304
     21 C         138.2863  139.9886  163.9455 C.ar    1  UNL1        0.1682
     22 N         137.9285  139.9905  165.4022 N.am    1  UNL1       -0.2639
     23 H         137.5709  140.8070  165.8201 H       1  UNL1        0.1565
     24 C         143.7878  144.9391  164.1221 C.3     1  UNL1        0.0319
     25 C         144.3405  143.9726  165.1273 C.3     1  UNL1        0.0304
     26 C         144.2661  142.4970  164.8685 C.ar    1  UNL1       -0.0014
     27 C         145.1490  141.8723  163.8292 C.ar    1  UNL1        0.0179
     28 C         145.0746  140.3967  163.5704 C.ar    1  UNL1        0.0986
     29 N         144.1172  139.5457  164.3510 N.ar    1  UNL1       -0.2423
     30 C         143.2343  140.1703  165.3903 C.ar    1  UNL1        0.0986
     31 C         142.2769  139.3193  166.1708 C.ar    1  UNL1        0.0221
     32 C         141.3939  139.9440  167.2102 C.ar    1  UNL1        0.0247
     33 C         141.4684  141.4196  167.4689 C.ar    1  UNL1        0.1527
     34 N         142.4257  142.2706  166.6884 N.ar    1  UNL1       -0.2402
     35 C         143.3087  141.6460  165.6491 C.ar    1  UNL1        0.0948
     36 C         140.5854  142.0443  168.5082 C.3     1  UNL1        0.4348
     37 F         139.7024  142.6689  169.5476 F       1  UNL1       -0.1644
     38 F         140.4300  143.2610  167.6449 F       1  UNL1       -0.1644
     39 F         140.7409  140.8276  169.3716 F       1  UNL1       -0.1644
@<TRIPOS>BOND
     1    12    13    2
     2    13    14    1
     3    14    15    1
     4    15    16    1
     5    16    17   ar
     6    17    18   ar
     7    18    19   ar
     8    19    11    1
     9    11     9    1
    10     9     1    1
    11     1     2    1
    12     2     3    1
    13     3     4    1
    14     4    24    1
    15    24    25    1
    16    25    26    1
    17    26    27   ar
    18    27    28   ar
    19    28    29   ar
    20    29    30   ar
    21    30    31   ar
    22    31    32   ar
    23    32    33   ar
    24    33    36    1
    25    36    37    1
    26    36    38    1
    27    36    39    1
    28    33    34   ar
    29    34    35   ar
    30     4     5    1
    31     5     6    1
    32     4     7    1
    33     7     8    1
    34    19    20   ar
    35    20    21   ar
    36    21    22    1
    37    22    13   am
    38    21    16   ar
    39     6     1    1
    40     8     1    1
    41    35    26   ar
    42    35    30   ar
    43     9    10    1
    44    22    23    1
@<TRIPOS>MOLECULE
*****
 39 44 0 0 0
SMALL
GASTEIGER

@<TRIPOS>ATOM
      1 C         142.2812  144.6205  163.4391 C.3     1  UNL1        0.0700
      2 C         142.0229  143.8137  164.6769 C.3     1  UNL1        0.0193
      3 C         142.8099  142.5631  164.9349 C.3     1  UNL1        0.0286
      4 C         143.8554  142.1194  163.9550 C.3     1  UNL1        0.0932
      5 C         144.1138  142.9262  162.7172 C.3     1  UNL1        0.0286
      6 C         143.3267  144.1768  162.4592 C.3     1  UNL1        0.0193
      7 O         143.4495  142.8116  163.7706 O.3     1  UNL1       -0.3572
      8 C         142.7378  143.9424  163.5373 C.3     1  UNL1        0.1562
      9 N         141.4942  145.8711  163.1811 N.3     1  UNL1       -0.2926
     10 H         141.1823  146.2153  164.0892 H       1  UNL1        0.1236
     11 C         140.2839  145.8264  162.2960 C.3     1  UNL1        0.1152
     12 O         138.8206  139.2489  158.3788 O.2     1  UNL1       -0.2707
     13 C         138.5368  140.1640  159.5329 C.2     1  UNL1        0.2718
     14 C         137.4815  139.8018  160.5354 C.3     1  UNL1        0.2898
     15 O         137.1976  140.7170  161.6894 O.3     1  UNL1       -0.4628
     16 C         137.9692  141.9943  161.8411 C.ar    1  UNL1        0.1708
     17 C         137.6854  142.9095  162.9952 C.ar    1  UNL1        0.0411
     18 C         138.4569  144.1868  163.1468 C.ar    1  UNL1        0.0193
     19 C         139.5124  144.5491  162.1443 C.ar    1  UNL1        0.0765
     20 N         139.7962  143.6339  160.9902 N.ar    1  UNL1       -0.2304
     21 C         139.0246  142.3565  160.8386 C.ar    1  UNL1        0.1682
     22 N         139.3084  141.4414  159.6845 N.am    1  UNL1       -0.2639
     23 H         140.0011  141.6791  159.0266 H       1  UNL1        0.1565
     24 C         144.6425  140.8688  164.2130 C.3     1  UNL1        0.0319
     25 C         143.9415  139.6202  164.6598 C.3     1  UNL1        0.0304
     26 C         142.9371  138.9616  163.7613 C.ar    1  UNL1       -0.0014
     27 C         143.3534  138.4635  162.4090 C.ar    1  UNL1        0.0179
     28 C         142.3490  137.8048  161.5105 C.ar    1  UNL1        0.0986
     29 N         140.9283  137.6442  161.9642 N.ar    1  UNL1       -0.2423
     30 C         140.5120  138.1423  163.3165 C.ar    1  UNL1        0.0986
     31 C         139.0913  137.9817  163.7702 C.ar    1  UNL1        0.0221
     32 C         138.6751  138.4798  165.1225 C.ar    1  UNL1        0.0247
     33 C         139.6795  139.1384  166.0210 C.ar    1  UNL1        0.1527
     34 N         141.1002  139.2990  165.5673 N.ar    1  UNL1       -0.2402
     35 C         141.5164  138.8010  164.2150 C.ar    1  UNL1        0.0948
     36 C         139.2632  139.6364  167.3733 C.3     1  UNL1        0.4348
     37 F         138.8468  140.1345  168.7256 F       1  UNL1       -0.1644
     38 F         140.5294  140.4349  167.4690 F       1  UNL1       -0.1644
     39 F         137.9970  138.8380  167.2775 F       1  UNL1       -0.1644
@<TRIPOS>BOND
     1    12    13    2
     2    13    14    1
     3    14    15    1
     4    15    16    1
     5    16    17   ar
     6    17    18   ar
     7    18    19   ar
     8    19    11    1
     9    11     9    1
    10     9     1    1
    11     1     2    1
    12     2     3    1
    13     3     4    1
    14     4    24    1
    15    24    25    1
    16    25    26    1
    17    26    27   ar
    18    27    28   ar
    19    28    29   ar
    20    29    30   ar
    21    30    31   ar
    22    31    32   ar
    23    32    33   ar
    24    33    36    1
    25    36    37    1
    26    36    38    1
    27    36    39    1
    28    33    34   ar
    29    34    35   ar
    30     4     5    1
    31     5     6    1
    32     4     7    1
    33     7     8    1
    34    19    20   ar
    35    20    21   ar
    36    21    22    1
    37    22    13   am
    38    21    16   ar
    39     6     1    1
    40     8     1    1
    41    35    26   ar
    42    35    30   ar
    43     9    10    1
    44    22    23    1
@<TRIPOS>MOLECULE
*****
 39 44 0 0 0
SMALL
GASTEIGER

@<TRIPOS>ATOM
      1 C         144.0857  139.6696  163.1611 C.3     1  UNL1        0.0700
      2 C         142.9377  139.4118  162.2306 C.3     1  UNL1        0.0193
      3 C         141.7381  138.6511  162.7123 C.3     1  UNL1        0.0286
      4 C         141.6863  138.1482  164.1246 C.3     1  UNL1        0.0932
      5 C         142.8342  138.4060  165.0551 C.3     1  UNL1        0.0286
      6 C         144.0339  139.1667  164.5733 C.3     1  UNL1        0.0193
      7 O         142.3648  138.5602  163.9061 O.3     1  UNL1       -0.3572
      8 C         143.4496  139.2481  163.4706 C.3     1  UNL1        0.1562
      9 N         145.2853  140.4303  162.6794 N.3     1  UNL1       -0.2926
     10 H         146.1061  139.9510  163.0496 H       1  UNL1        0.1236
     11 C         145.4403  141.8823  163.0227 C.3     1  UNL1        0.1152
     12 O         139.9501  145.8274  159.1442 O.2     1  UNL1       -0.2707
     13 C         140.5816  145.4143  160.4405 C.2     1  UNL1        0.2718
     14 C         140.0147  145.9032  161.7403 C.3     1  UNL1        0.2898
     15 O         140.6462  145.4901  163.0367 O.3     1  UNL1       -0.4628
     16 C         141.8447  144.5882  163.0332 C.ar    1  UNL1        0.1708
     17 C         142.4763  144.1751  164.3295 C.ar    1  UNL1        0.0411
     18 C         143.6748  143.2731  164.3261 C.ar    1  UNL1        0.0193
     19 C         144.2418  142.7842  163.0262 C.ar    1  UNL1        0.0765
     20 N         143.6103  143.1973  161.7299 N.ar    1  UNL1       -0.2304
     21 C         142.4117  144.0993  161.7334 C.ar    1  UNL1        0.1682
     22 N         141.7801  144.5124  160.4370 N.am    1  UNL1       -0.2639
     23 H         142.1523  144.1915  159.5839 H       1  UNL1        0.1565
     24 C         140.4866  137.3875  164.6063 C.3     1  UNL1        0.0319
     25 C         139.3905  138.1018  165.3400 C.3     1  UNL1        0.0304
     26 C         139.2642  139.5927  165.2332 C.ar    1  UNL1       -0.0014
     27 C         138.4779  140.2002  164.1094 C.ar    1  UNL1        0.0179
     28 C         138.3516  141.6910  164.0026 C.ar    1  UNL1        0.0986
     29 N         139.0116  142.5744  165.0195 N.ar    1  UNL1       -0.2423
     30 C         139.7979  141.9669  166.1432 C.ar    1  UNL1        0.0986
     31 C         140.4579  142.8503  167.1601 C.ar    1  UNL1        0.0221
     32 C         141.2442  142.2428  168.2838 C.ar    1  UNL1        0.0247
     33 C         141.3705  140.7520  168.3906 C.ar    1  UNL1        0.1527
     34 N         140.7105  139.8686  167.3737 N.ar    1  UNL1       -0.2402
     35 C         139.9242  140.4760  166.2501 C.ar    1  UNL1        0.0948
     36 C         142.1568  140.1445  169.5143 C.3     1  UNL1        0.4348
     37 F         142.9431  139.5370  170.6381 F       1  UNL1       -0.1644
     38 F         143.3528  140.9581  169.1172 F       1  UNL1       -0.1644
     39 F         140.9608  139.3310  169.9114 F       1  UNL1       -0.1644
@<TRIPOS>BOND
     1    12    13    2
     2    13    14    1
     3    14    15    1
     4    15    16    1
     5    16    17   ar
     6    17    18   ar
     7    18    19   ar
     8    19    11    1
     9    11     9    1
    10     9     1    1
    11     1     2    1
    12     2     3    1
    13     3     4    1
    14     4    24    1
    15    24    25    1
    16    25    26    1
    17    26    27   ar
    18    27    28   ar
    19    28    29   ar
    20    29    30   ar
    21    30    31   ar
    22    31    32   ar
    23    32    33   ar
    24    33    36    1
    25    36    37    1
    26    36    38    1
    27    36    39    1
    28    33    34   ar
    29    34    35   ar
    30     4     5    1
    31     5     6    1
    32     4     7    1
    33     7     8    1
    34    19    20   ar
    35    20    21   ar
    36    21    22    1
    37    22    13   am
    38    21    16   ar
    39     6     1    1
    40     8     1    1
    41    35    26   ar
    42    35    30   ar
    43     9    10    1
    44    22    23    1
@<TRIPOS>MOLECULE
*****
 39 44 0 0 0
SMALL
GASTEIGER

@<TRIPOS>ATOM
      1 C         142.1800  144.9877  162.8673 C.3     1  UNL1        0.0700
      2 C         142.5827  144.1811  161.6685 C.3     1  UNL1        0.0193
      3 C         143.7111  143.1981  161.7706 C.3     1  UNL1        0.0286
      4 C         144.4369  143.0217  163.0715 C.3     1  UNL1        0.0932
      5 C         144.0341  143.8284  164.2703 C.3     1  UNL1        0.0286
      6 C         142.9056  144.8113  164.1682 C.3     1  UNL1        0.0193
      7 O         143.8249  143.5725  163.0641 O.3     1  UNL1       -0.3572
      8 C         142.8045  144.4614  162.9718 C.3     1  UNL1        0.1562
      9 N         141.0516  145.9706  162.7653 N.3     1  UNL1       -0.2926
     10 H         141.0161  146.4714  163.6532 H       1  UNL1        0.1236
     11 C         139.6594  145.4878  162.4845 C.3     1  UNL1        0.1152
     12 O         139.0897  137.9194  160.7113 O.2     1  UNL1       -0.2707
     13 C         138.8797  139.0463  161.6787 C.2     1  UNL1        0.2718
     14 C         138.2697  138.7774  163.0224 C.3     1  UNL1        0.2898
     15 O         138.0597  139.9044  163.9898 O.3     1  UNL1       -0.4628
     16 C         138.4596  141.3002  163.6135 C.ar    1  UNL1        0.1708
     17 C         138.2496  142.4272  164.5809 C.ar    1  UNL1        0.0411
     18 C         138.6495  143.8230  164.2046 C.ar    1  UNL1        0.0193
     19 C         139.2595  144.0920  162.8608 C.ar    1  UNL1        0.0765
     20 N         139.4695  142.9650  161.8934 N.ar    1  UNL1       -0.2304
     21 C         139.0695  141.5691  162.2698 C.ar    1  UNL1        0.1682
     22 N         139.2796  140.4422  161.3024 N.am    1  UNL1       -0.2639
     23 H         139.6799  140.6187  160.4204 H       1  UNL1        0.1565
     24 C         145.5653  142.0388  163.1735 C.3     1  UNL1        0.0319
     25 C         145.4229  140.8205  164.0369 C.3     1  UNL1        0.0304
     26 C         144.1912  139.9704  163.9373 C.ar    1  UNL1       -0.0014
     27 C         144.0368  139.0039  162.8005 C.ar    1  UNL1        0.0179
     28 C         142.8051  138.1537  162.7009 C.ar    1  UNL1        0.0986
     29 N         141.7276  138.2700  163.7379 N.ar    1  UNL1       -0.2423
     30 C         141.8819  139.2364  164.8746 C.ar    1  UNL1        0.0986
     31 C         140.8044  139.3527  165.9117 C.ar    1  UNL1        0.0221
     32 C         140.9587  140.3192  167.0485 C.ar    1  UNL1        0.0247
     33 C         142.1905  141.1694  167.1481 C.ar    1  UNL1        0.1527
     34 N         143.2680  141.0531  166.1111 N.ar    1  UNL1       -0.2402
     35 C         143.1137  140.0866  164.9743 C.ar    1  UNL1        0.0948
     36 C         142.3447  142.1358  168.2848 C.3     1  UNL1        0.4348
     37 F         142.4990  143.1022  169.4217 F       1  UNL1       -0.1644
     38 F         143.6179  142.6464  167.6780 F       1  UNL1       -0.1644
     39 F         141.0716  141.6252  168.8917 F       1  UNL1       -0.1644
@<TRIPOS>BOND
     1    12    13    2
     2    13    14    1
     3    14    15    1
     4    15    16    1
     5    16    17   ar
     6    17    18   ar
     7    18    19   ar
     8    19    11    1
     9    11     9    1
    10     9     1    1
    11     1     2    1
    12     2     3    1
    13     3     4    1
    14     4    24    1
    15    24    25    1
    16    25    26    1
    17    26    27   ar
    18    27    28   ar
    19    28    29   ar
    20    29    30   ar
    21    30    31   ar
    22    31    32   ar
    23    32    33   ar
    24    33    36    1
    25    36    37    1
    26    36    38    1
    27    36    39    1
    28    33    34   ar
    29    34    35   ar
    30     4     5    1
    31     5     6    1
    32     4     7    1
    33     7     8    1
    34    19    20   ar
    35    20    21   ar
    36    21    22    1
    37    22    13   am
    38    21    16   ar
    39     6     1    1
    40     8     1    1
    41    35    26   ar
    42    35    30   ar
    43     9    10    1
    44    22    23    1
@<TRIPOS>MOLECULE
*****
 39 44 0 0 0
SMALL
GASTEIGER

@<TRIPOS>ATOM
      1 C         141.3211  137.6592  162.2455 C.3     1  UNL1        0.0700
      2 C         139.8671  137.9407  162.0076 C.3     1  UNL1        0.0193
      3 C         138.9054  137.9429  163.1587 C.3     1  UNL1        0.0286
      4 C         139.3977  137.6636  164.5479 C.3     1  UNL1        0.0932
      5 C         140.8517  137.3821  164.7858 C.3     1  UNL1        0.0286
      6 C         141.8134  137.3799  163.6346 C.3     1  UNL1        0.0193
      7 O         139.9624  137.6515  163.9487 O.3     1  UNL1       -0.3572
      8 C         140.8320  137.6495  162.9079 C.3     1  UNL1        0.1562
      9 N         142.2828  137.6570  161.0944 N.3     1  UNL1       -0.2926
     10 H         142.5979  136.6942  160.9758 H       1  UNL1        0.1236
     11 C         143.5140  138.5125  161.1440 C.3     1  UNL1        0.1152
     12 O         145.2488  144.2399  166.1377 O.2     1  UNL1       -0.2707
     13 C         144.5683  143.7690  164.8867 C.2     1  UNL1        0.2718
     14 C         143.7855  144.7363  164.0492 C.3     1  UNL1        0.2898
     15 O         143.1049  144.2654  162.7982 O.3     1  UNL1       -0.4628
     16 C         143.2071  142.8272  162.3846 C.ar    1  UNL1        0.1708
     17 C         142.5266  142.3564  161.1336 C.ar    1  UNL1        0.0411
     18 C         142.6288  140.9182  160.7200 C.ar    1  UNL1        0.0193
     19 C         143.4117  139.9507  161.5575 C.ar    1  UNL1        0.0765
     20 N         144.0923  140.4216  162.8086 N.ar    1  UNL1       -0.2304
     21 C         143.9900  141.8599  163.2221 C.ar    1  UNL1        0.1682
     22 N         144.6705  142.3308  164.4731 N.am    1  UNL1       -0.2639
     23 H         145.1843  141.6959  165.0228 H       1  UNL1        0.1565
     24 C         138.4361  137.6658  165.6990 C.3     1  UNL1        0.0319
     25 C         137.9627  138.9659  166.2784 C.3     1  UNL1        0.0304
     26 C         138.9586  139.9868  166.7429 C.ar    1  UNL1       -0.0014
     27 C         139.6148  139.8386  168.0836 C.ar    1  UNL1        0.0179
     28 C         140.6108  140.8595  168.5482 C.ar    1  UNL1        0.0986
     29 N         140.9506  142.0286  167.6720 N.ar    1  UNL1       -0.2423
     30 C         140.2944  142.1769  166.3313 C.ar    1  UNL1        0.0986
     31 C         140.6342  143.3460  165.4552 C.ar    1  UNL1        0.0221
     32 C         139.9780  143.4943  164.1145 C.ar    1  UNL1        0.0247
     33 C         138.9821  142.4734  163.6499 C.ar    1  UNL1        0.1527
     34 N         138.6423  141.3042  164.5261 N.ar    1  UNL1       -0.2402
     35 C         139.2984  141.1560  165.8667 C.ar    1  UNL1        0.0948
     36 C         138.3260  142.6216  162.3092 C.3     1  UNL1        0.4348
     37 F         137.6698  142.7698  160.9685 F       1  UNL1       -0.1644
     38 F         139.4742  143.4653  161.8406 F       1  UNL1       -0.1644
     39 F         137.1777  141.7779  162.7779 F       1  UNL1       -0.1644
@<TRIPOS>BOND
     1    12    13    2
     2    13    14    1
     3    14    15    1
     4    15    16    1
     5    16    17   ar
     6    17    18   ar
     7    18    19   ar
     8    19    11    1
     9    11     9    1
    10     9     1    1
    11     1     2    1
    12     2     3    1
    13     3     4    1
    14     4    24    1
    15    24    25    1
    16    25    26    1
    17    26    27   ar
    18    27    28   ar
    19    28    29   ar
    20    29    30   ar
    21    30    31   ar
    22    31    32   ar
    23    32    33   ar
    24    33    36    1
    25    36    37    1
    26    36    38    1
    27    36    39    1
    28    33    34   ar
    29    34    35   ar
    30     4     5    1
    31     5     6    1
    32     4     7    1
    33     7     8    1
    34    19    20   ar
    35    20    21   ar
    36    21    22    1
    37    22    13   am
    38    21    16   ar
    39     6     1    1
    40     8     1    1
    41    35    26   ar
    42    35    30   ar
    43     9    10    1
    44    22    23    1
@<TRIPOS>MOLECULE
*****
 39 44 0 0 0
SMALL
GASTEIGER

@<TRIPOS>ATOM
      1 C         139.3797  137.9585  162.8073 C.3     1  UNL1        0.0700
      2 C         140.7926  138.0685  162.3157 C.3     1  UNL1        0.0193
      3 C         141.8964  138.4034  163.2745 C.3     1  UNL1        0.0286
      4 C         141.5873  138.6284  164.7251 C.3     1  UNL1        0.0932
      5 C         140.1745  138.5184  165.2167 C.3     1  UNL1        0.0286
      6 C         139.0706  138.1835  164.2578 C.3     1  UNL1        0.0193
      7 O         140.9491  138.4471  164.2374 O.3     1  UNL1       -0.3572
      8 C         139.9510  138.1443  163.3704 C.3     1  UNL1        0.1562
      9 N         138.2759  137.6236  161.8485 N.3     1  UNL1       -0.2926
     10 H         138.7158  137.2136  161.0247 H       1  UNL1        0.1236
     11 C         137.3564  138.7021  161.3569 C.3     1  UNL1        0.1152
     12 O         141.2441  144.1697  157.3895 O.2     1  UNL1       -0.2707
     13 C         140.4442  143.7575  158.5896 C.2     1  UNL1        0.2718
     14 C         140.1404  144.7555  159.6673 C.3     1  UNL1        0.2898
     15 O         139.3405  144.3433  160.8675 O.3     1  UNL1       -0.4628
     16 C         138.8445  142.9330  160.9898 C.ar    1  UNL1        0.1708
     17 C         138.0447  142.5207  162.1900 C.ar    1  UNL1        0.0411
     18 C         137.5486  141.1105  162.3123 C.ar    1  UNL1        0.0193
     19 C         137.8524  140.1123  161.2346 C.ar    1  UNL1        0.0765
     20 N         138.6523  140.5246  160.0344 N.ar    1  UNL1       -0.2304
     21 C         139.1483  141.9350  159.9121 C.ar    1  UNL1        0.1682
     22 N         139.9482  142.3472  158.7120 N.am    1  UNL1       -0.2639
     23 H         140.1476  141.6921  158.0046 H       1  UNL1        0.1565
     24 C         142.6911  138.9633  165.6839 C.3     1  UNL1        0.0319
     25 C         143.0363  140.3969  165.9591 C.3     1  UNL1        0.0304
     26 C         143.6452  141.2423  164.8800 C.ar    1  UNL1       -0.0014
     27 C         144.9715  140.8644  164.2898 C.ar    1  UNL1        0.0179
     28 C         145.5804  141.7097  163.2107 C.ar    1  UNL1        0.0986
     29 N         144.8631  142.9330  162.7217 N.ar    1  UNL1       -0.2423
     30 C         143.5369  143.3109  163.3119 C.ar    1  UNL1        0.0986
     31 C         142.8196  144.5342  162.8229 C.ar    1  UNL1        0.0221
     32 C         141.4933  144.9121  163.4130 C.ar    1  UNL1        0.0247
     33 C         140.8844  144.0667  164.4922 C.ar    1  UNL1        0.1527
     34 N         141.6017  142.8434  164.9811 N.ar    1  UNL1       -0.2402
     35 C         142.9279  142.4655  164.3910 C.ar    1  UNL1        0.0948
     36 C         139.5582  144.4446  165.0823 C.3     1  UNL1        0.4348
     37 F         138.2319  144.8226  165.6724 F       1  UNL1       -0.1644
     38 F         139.8621  143.6166  166.2955 F       1  UNL1       -0.1644
     39 F         139.2542  145.2726  163.8690 F       1  UNL1       -0.1644
@<TRIPOS>BOND
     1    12    13    2
     2    13    14    1
     3    14    15    1
     4    15    16    1
     5    16    17   ar
     6    17    18   ar
     7    18    19   ar
     8    19    11    1
     9    11     9    1
    10     9     1    1
    11     1     2    1
    12     2     3    1
    13     3     4    1
    14     4    24    1
    15    24    25    1
    16    25    26    1
    17    26    27   ar
    18    27    28   ar
    19    28    29   ar
    20    29    30   ar
    21    30    31   ar
    22    31    32   ar
    23    32    33   ar
    24    33    36    1
    25    36    37    1
    26    36    38    1
    27    36    39    1
    28    33    34   ar
    29    34    35   ar
    30     4     5    1
    31     5     6    1
    32     4     7    1
    33     7     8    1
    34    19    20   ar
    35    20    21   ar
    36    21    22    1
    37    22    13   am
    38    21    16   ar
    39     6     1    1
    40     8     1    1
    41    35    26   ar
    42    35    30   ar
    43     9    10    1
    44    22    23    1
