@<TRIPOS>MOLECULE
*****
 31 34 0 0 0
SMALL
GASTEIGER

@<TRIPOS>ATOM
      1 N         144.2384  139.8670  163.8672 N.3     1  UNL1       -0.2700
      2 C         143.9324  139.3583  165.2447 C.3     1  UNL1        0.0897
      3 C         142.7590  138.4504  165.4654 C.3     1  UNL1        0.0897
      4 N         141.8917  138.0510  164.3085 N.3     1  UNL1       -0.2700
      5 C         142.1977  138.5597  162.9310 C.3     1  UNL1        0.0897
      6 C         143.3711  139.4676  162.7103 C.3     1  UNL1        0.0897
      7 C         145.4119  140.7750  163.6465 C.3     1  UNL1        0.0769
      8 C         145.3059  142.2328  163.9833 C.3     1  UNL1        0.0437
      9 C         142.6767  143.9864  161.5829 C.ar    1  UNL1        0.0541
     10 C         143.8613  143.1932  162.0492 C.ar    1  UNL1        0.0108
     11 C         144.1213  143.0260  163.5170 C.ar    1  UNL1       -0.0195
     12 C         143.1968  143.6522  164.5185 C.ar    1  UNL1       -0.0035
     13 C         142.0121  144.4455  164.0522 C.ar    1  UNL1        0.0112
     14 C         141.7521  144.6126  162.5844 C.ar    1  UNL1        0.0815
     15 C         143.1272  143.2808  159.1234 C.3     1  UNL1        0.1085
     16 N         142.4166  144.1535  160.1151 N.pl3   1  UNL1       -0.3308
     17 H         141.7796  144.8360  159.8026 H       1  UNL1        0.1469
     18 C         140.5675  145.4059  162.1181 C.1     1  UNL1        0.1017
     19 N         139.3829  146.1992  161.6518 N.1     1  UNL1       -0.1908
     20 C         140.7183  137.1430  164.5292 C.3     1  UNL1        0.0769
     21 C         139.3885  137.7172  164.9192 C.3     1  UNL1        0.0437
     22 C         139.1778  139.2022  164.8989 C.ar    1  UNL1       -0.0210
     23 C         139.6933  140.0484  166.0250 C.ar    1  UNL1       -0.0040
     24 C         139.4826  141.5333  166.0047 C.ar    1  UNL1        0.0059
     25 C         138.7563  142.1721  164.8583 C.ar    1  UNL1        0.0751
     26 C         138.2407  141.3260  163.7321 C.ar    1  UNL1        0.0272
     27 C         138.4515  139.8411  163.7524 C.ar    1  UNL1       -0.0047
     28 C         137.5668  142.2307  162.7435 C.3     1  UNL1        0.2356
     29 O         137.6659  143.6360  163.2586 O.3     1  UNL1       -0.4404
     30 C         138.4010  143.5999  164.5657 C.2     1  UNL1        0.3413
     31 O         138.7242  144.7835  165.4285 O.2     1  UNL1       -0.2449
@<TRIPOS>BOND
     1    15    16    1
     2    16     9    1
     3     9    10   ar
     4    10    11   ar
     5    11     8    1
     6     8     7    1
     7     7     1    1
     8     1     2    1
     9     2     3    1
    10     3     4    1
    11     4    20    1
    12    20    21    1
    13    21    22    1
    14    22    23   ar
    15    23    24   ar
    16    24    25   ar
    17    25    26   ar
    18    26    27   ar
    19    26    28    1
    20    28    29    1
    21    29    30    1
    22    30    31    2
    23     4     5    1
    24     5     6    1
    25    11    12   ar
    26    12    13   ar
    27    13    14   ar
    28    14    18    1
    29    18    19    3
    30    14     9   ar
    31     6     1    1
    32    27    22   ar
    33    30    25    1
    34    16    17    1
@<TRIPOS>MOLECULE
*****
 31 34 0 0 0
SMALL
GASTEIGER

@<TRIPOS>ATOM
      1 N         144.0238  139.2112  162.0453 N.3     1  UNL1       -0.2700
      2 C         144.3952  139.1120  163.4952 C.3     1  UNL1        0.0897
      3 C         144.8356  140.3361  164.2419 C.3     1  UNL1        0.0897
      4 N         144.9047  141.6593  163.5387 N.3     1  UNL1       -0.2700
      5 C         144.5334  141.7584  162.0888 C.3     1  UNL1        0.0897
      6 C         144.0930  140.5343  161.3421 C.3     1  UNL1        0.0897
      7 C         143.5834  137.9871  161.2985 C.3     1  UNL1        0.0769
      8 C         142.1214  137.6999  161.1250 C.3     1  UNL1        0.0437
      9 C         139.0602  138.9977  163.2916 C.ar    1  UNL1        0.0541
     10 C         140.0031  138.8099  162.1404 C.ar    1  UNL1        0.0108
     11 C         141.1785  137.8877  162.2762 C.ar    1  UNL1       -0.0195
     12 C         141.4107  137.1535  163.5635 C.ar    1  UNL1       -0.0035
     13 C         140.4677  137.3414  164.7148 C.ar    1  UNL1        0.0112
     14 C         139.2925  138.2635  164.5788 C.ar    1  UNL1        0.0815
     15 C         137.6834  140.6963  161.8882 C.3     1  UNL1        0.1085
     16 N         137.8849  139.9198  163.1557 N.pl3   1  UNL1       -0.3308
     17 H         137.2457  140.0154  163.8984 H       1  UNL1        0.1469
     18 C         138.3494  138.4513  165.7302 C.1     1  UNL1        0.1017
     19 N         137.4065  138.6392  166.8814 N.1     1  UNL1       -0.1908
     20 C         145.3452  142.8834  164.2855 C.3     1  UNL1        0.0769
     21 C         144.3717  143.6221  165.1553 C.3     1  UNL1        0.0437
     22 C         142.9310  143.7238  164.7499 C.ar    1  UNL1       -0.0210
     23 C         142.5115  144.7279  163.7175 C.ar    1  UNL1       -0.0040
     24 C         141.0710  144.8296  163.3122 C.ar    1  UNL1        0.0059
     25 C         140.0499  143.9273  163.9392 C.ar    1  UNL1        0.0751
     26 C         140.4694  142.9232  164.9716 C.ar    1  UNL1        0.0272
     27 C         141.9100  142.8215  165.3769 C.ar    1  UNL1       -0.0047
     28 C         139.2473  142.1733  165.4123 C.3     1  UNL1        0.2356
     29 O         138.0725  142.7139  164.6523 O.3     1  UNL1       -0.4404
     30 C         138.5685  143.7979  163.7419 C.2     1  UNL1        0.3413
     31 O         137.7304  144.6100  162.7995 O.2     1  UNL1       -0.2449
@<TRIPOS>BOND
     1    15    16    1
     2    16     9    1
     3     9    10   ar
     4    10    11   ar
     5    11     8    1
     6     8     7    1
     7     7     1    1
     8     1     2    1
     9     2     3    1
    10     3     4    1
    11     4    20    1
    12    20    21    1
    13    21    22    1
    14    22    23   ar
    15    23    24   ar
    16    24    25   ar
    17    25    26   ar
    18    26    27   ar
    19    26    28    1
    20    28    29    1
    21    29    30    1
    22    30    31    2
    23     4     5    1
    24     5     6    1
    25    11    12   ar
    26    12    13   ar
    27    13    14   ar
    28    14    18    1
    29    18    19    3
    30    14     9   ar
    31     6     1    1
    32    27    22   ar
    33    30    25    1
    34    16    17    1
@<TRIPOS>MOLECULE
*****
 31 34 0 0 0
SMALL
GASTEIGER

@<TRIPOS>ATOM
      1 N         144.1288  139.9549  163.9727 N.3     1  UNL1       -0.2700
      2 C         143.4155  139.4706  165.2001 C.3     1  UNL1        0.0897
      3 C         142.3048  138.4701  165.0763 C.3     1  UNL1        0.0897
      4 N         141.9075  137.9540  163.7251 N.3     1  UNL1       -0.2700
      5 C         142.6208  138.4383  162.4977 C.3     1  UNL1        0.0897
      6 C         143.7315  139.4388  162.6215 C.3     1  UNL1        0.0897
      7 C         145.2396  140.9555  164.0965 C.3     1  UNL1        0.0769
      8 C         144.9431  142.3521  164.5564 C.3     1  UNL1        0.0437
      9 C         141.4442  144.1555  164.0515 C.ar    1  UNL1        0.0541
     10 C         142.5597  143.3782  164.6849 C.ar    1  UNL1        0.0108
     11 C         143.8276  143.1294  163.9229 C.ar    1  UNL1       -0.0195
     12 C         143.9799  143.6580  162.5274 C.ar    1  UNL1       -0.0035
     13 C         142.8643  144.4353  161.8939 C.ar    1  UNL1        0.0112
     14 C         141.5965  144.6841  162.6560 C.ar    1  UNL1        0.0815
     15 C         139.8875  143.6266  166.0632 C.3     1  UNL1        0.1085
     16 N         140.1763  144.4043  164.8135 N.pl3   1  UNL1       -0.3308
     17 H         139.5337  145.0780  164.4934 H       1  UNL1        0.1469
     18 C         140.4809  145.4614  162.0225 C.1     1  UNL1        0.1017
     19 N         139.3653  146.2387  161.3890 N.1     1  UNL1       -0.1908
     20 C         140.7967  136.9534  163.6014 C.3     1  UNL1        0.0769
     21 C         139.3781  137.3733  163.8485 C.3     1  UNL1        0.0437
     22 C         138.9650  138.7959  163.6124 C.ar    1  UNL1       -0.0210
     23 C         138.6586  139.6910  164.7764 C.ar    1  UNL1       -0.0040
     24 C         138.2456  141.1135  164.5402 C.ar    1  UNL1        0.0059
     25 C         138.1389  141.6409  163.1401 C.ar    1  UNL1        0.0751
     26 C         138.4453  140.7459  161.9761 C.ar    1  UNL1        0.0272
     27 C         138.8584  139.3234  162.2122 C.ar    1  UNL1       -0.0047
     28 C         138.2546  141.5400  160.7179 C.3     1  UNL1        0.2356
     29 O         137.8303  142.9259  161.1043 O.3     1  UNL1       -0.4404
     30 C         137.7588  142.9883  162.6013 C.2     1  UNL1        0.3413
     31 O         137.3747  144.1875  163.4164 O.2     1  UNL1       -0.2449
@<TRIPOS>BOND
     1    15    16    1
     2    16     9    1
     3     9    10   ar
     4    10    11   ar
     5    11     8    1
     6     8     7    1
     7     7     1    1
     8     1     2    1
     9     2     3    1
    10     3     4    1
    11     4    20    1
    12    20    21    1
    13    21    22    1
    14    22    23   ar
    15    23    24   ar
    16    24    25   ar
    17    25    26   ar
    18    26    27   ar
    19    26    28    1
    20    28    29    1
    21    29    30    1
    22    30    31    2
    23     4     5    1
    24     5     6    1
    25    11    12   ar
    26    12    13   ar
    27    13    14   ar
    28    14    18    1
    29    18    19    3
    30    14     9   ar
    31     6     1    1
    32    27    22   ar
    33    30    25    1
    34    16    17    1
@<TRIPOS>MOLECULE
*****
 31 34 0 0 0
SMALL
GASTEIGER

@<TRIPOS>ATOM
      1 N         137.8631  140.6082  161.7524 N.3     1  UNL1       -0.2700
      2 C         137.4352  141.0747  163.1122 C.3     1  UNL1        0.0897
      3 C         137.8582  142.4253  163.6092 C.3     1  UNL1        0.0897
      4 N         138.7090  143.3093  162.7464 N.3     1  UNL1       -0.2700
      5 C         139.1370  142.8428  161.3866 C.3     1  UNL1        0.0897
      6 C         138.7140  141.4923  160.8896 C.3     1  UNL1        0.0897
      7 C         137.4402  139.2576  161.2553 C.3     1  UNL1        0.0769
      8 C         138.3623  138.0832  161.3985 C.3     1  UNL1        0.0437
      9 C         141.9662  138.1919  163.0566 C.ar    1  UNL1        0.0541
     10 C         140.8837  138.1732  162.0185 C.ar    1  UNL1        0.0108
     11 C         139.4448  138.1018  162.4366 C.ar    1  UNL1       -0.0195
     12 C         139.0886  138.0490  163.8927 C.ar    1  UNL1       -0.0035
     13 C         140.1712  138.0676  164.9308 C.ar    1  UNL1        0.0112
     14 C         141.6100  138.1391  164.5128 C.ar    1  UNL1        0.0815
     15 C         143.7581  138.4214  161.1893 C.3     1  UNL1        0.1085
     16 N         143.4051  138.2633  162.6386 N.pl3   1  UNL1       -0.3308
     17 H         144.1177  138.2064  163.3155 H       1  UNL1        0.1469
     18 C         142.6927  138.1577  165.5509 C.1     1  UNL1        0.1017
     19 N         143.7753  138.1763  166.5889 N.1     1  UNL1       -0.1908
     20 C         139.1320  144.6600  163.2435 C.3     1  UNL1        0.0769
     21 C         140.2792  144.7808  164.2022 C.3     1  UNL1        0.0437
     22 C         141.4386  143.8337  164.1077 C.ar    1  UNL1       -0.0210
     23 C         141.5840  142.7242  165.1066 C.ar    1  UNL1       -0.0040
     24 C         142.7434  141.7772  165.0121 C.ar    1  UNL1        0.0059
     25 C         143.7573  141.9396  163.9187 C.ar    1  UNL1        0.0751
     26 C         143.6119  143.0491  162.9198 C.ar    1  UNL1        0.0272
     27 C         142.4525  143.9961  163.0143 C.ar    1  UNL1       -0.0047
     28 C         144.7603  142.9611  161.9588 C.3     1  UNL1        0.2356
     29 O         145.6155  141.7972  162.3638 O.3     1  UNL1       -0.4404
     30 C         144.9956  141.1658  163.5751 C.2     1  UNL1        0.3413
     31 O         145.5216  139.9706  164.3132 O.2     1  UNL1       -0.2449
@<TRIPOS>BOND
     1    15    16    1
     2    16     9    1
     3     9    10   ar
     4    10    11   ar
     5    11     8    1
     6     8     7    1
     7     7     1    1
     8     1     2    1
     9     2     3    1
    10     3     4    1
    11     4    20    1
    12    20    21    1
    13    21    22    1
    14    22    23   ar
    15    23    24   ar
    16    24    25   ar
    17    25    26   ar
    18    26    27   ar
    19    26    28    1
    20    28    29    1
    21    29    30    1
    22    30    31    2
    23     4     5    1
    24     5     6    1
    25    11    12   ar
    26    12    13   ar
    27    13    14   ar
    28    14    18    1
    29    18    19    3
    30    14     9   ar
    31     6     1    1
    32    27    22   ar
    33    30    25    1
    34    16    17    1
@<TRIPOS>MOLECULE
*****
 31 34 0 0 0
SMALL
GASTEIGER

@<TRIPOS>ATOM
      1 N         140.4327  139.3936  161.9098 N.3     1  UNL1       -0.2700
      2 C         140.3056  138.3871  163.0147 C.3     1  UNL1        0.0897
      3 C         141.3270  138.3455  164.1124 C.3     1  UNL1        0.0897
      4 N         142.4755  139.3103  164.1052 N.3     1  UNL1       -0.2700
      5 C         142.6027  140.3167  163.0003 C.3     1  UNL1        0.0897
      6 C         141.5813  140.3584  161.9026 C.3     1  UNL1        0.0897
      7 C         139.4113  139.4353  160.8120 C.3     1  UNL1        0.0769
      8 C         138.1754  140.2706  160.9688 C.3     1  UNL1        0.0437
      9 C         138.2783  143.8414  162.6976 C.ar    1  UNL1        0.0541
     10 C         138.3336  142.7742  161.6450 C.ar    1  UNL1        0.0108
     11 C         138.1201  141.3378  162.0214 C.ar    1  UNL1       -0.0195
     12 C         137.8515  140.9689  163.4502 C.ar    1  UNL1       -0.0035
     13 C         137.7962  142.0362  164.5028 C.ar    1  UNL1        0.0112
     14 C         138.0096  143.4724  164.1264 C.ar    1  UNL1        0.0815
     15 C         139.8819  145.8372  162.2557 C.3     1  UNL1        0.1085
     16 N         138.4917  145.2777  162.3212 N.pl3   1  UNL1       -0.3308
     17 H         137.7193  145.8532  162.1173 H       1  UNL1        0.1469
     18 C         137.9544  144.5398  165.1790 C.1     1  UNL1        0.1017
     19 N         137.8991  145.6071  166.2315 N.1     1  UNL1       -0.1908
     20 C         143.4969  139.2686  165.2030 C.3     1  UNL1        0.0769
     21 C         143.0753  138.9567  166.6082 C.3     1  UNL1        0.0437
     22 C         142.3762  139.9986  167.4303 C.ar    1  UNL1       -0.0210
     23 C         142.8373  141.4252  167.3828 C.ar    1  UNL1       -0.0040
     24 C         142.1383  142.4670  168.2049 C.ar    1  UNL1        0.0059
     25 C         140.9781  142.0823  169.0744 C.ar    1  UNL1        0.0751
     26 C         140.5171  140.6558  169.1219 C.ar    1  UNL1        0.0272
     27 C         141.2161  139.6139  168.2999 C.ar    1  UNL1       -0.0047
     28 C         139.3537  140.5759  170.0655 C.3     1  UNL1        0.2356
     29 O         139.0958  141.9530  170.6011 O.3     1  UNL1       -0.4404
     30 C         140.0998  142.8841  169.9887 C.2     1  UNL1        0.3413
     31 O         140.2066  144.3581  170.2453 O.2     1  UNL1       -0.2449
@<TRIPOS>BOND
     1    15    16    1
     2    16     9    1
     3     9    10   ar
     4    10    11   ar
     5    11     8    1
     6     8     7    1
     7     7     1    1
     8     1     2    1
     9     2     3    1
    10     3     4    1
    11     4    20    1
    12    20    21    1
    13    21    22    1
    14    22    23   ar
    15    23    24   ar
    16    24    25   ar
    17    25    26   ar
    18    26    27   ar
    19    26    28    1
    20    28    29    1
    21    29    30    1
    22    30    31    2
    23     4     5    1
    24     5     6    1
    25    11    12   ar
    26    12    13   ar
    27    13    14   ar
    28    14    18    1
    29    18    19    3
    30    14     9   ar
    31     6     1    1
    32    27    22   ar
    33    30    25    1
    34    16    17    1
@<TRIPOS>MOLECULE
*****
 31 34 0 0 0
SMALL
GASTEIGER

@<TRIPOS>ATOM
      1 N         139.5626  138.4149  164.0551 N.3     1  UNL1       -0.2700
      2 C         139.3324  139.1000  162.7407 C.3     1  UNL1        0.0897
      3 C         140.3899  139.0579  161.6777 C.3     1  UNL1        0.0897
      4 N         141.6775  138.3307  161.9291 N.3     1  UNL1       -0.2700
      5 C         141.9077  137.6456  163.2434 C.3     1  UNL1        0.0897
      6 C         140.8502  137.6877  164.3064 C.3     1  UNL1        0.0897
      7 C         138.5051  138.4569  165.1181 C.3     1  UNL1        0.0769
      8 C         138.3123  139.6998  165.9354 C.3     1  UNL1        0.0437
      9 C         141.0875  140.4766  168.6639 C.ar    1  UNL1        0.0541
     10 C         139.9156  139.8428  167.9748 C.ar    1  UNL1        0.0108
     11 C         139.4842  140.3336  166.6245 C.ar    1  UNL1       -0.0195
     12 C         140.2247  141.4581  165.9635 C.ar    1  UNL1       -0.0035
     13 C         141.3967  142.0919  166.6526 C.ar    1  UNL1        0.0112
     14 C         141.8281  141.6011  168.0028 C.ar    1  UNL1        0.0815
     15 C         142.4946  138.8517  170.1234 C.3     1  UNL1        0.1085
     16 N         141.5189  139.9858  170.0141 N.pl3   1  UNL1       -0.3308
     17 H         141.1617  140.4081  170.8286 H       1  UNL1        0.1469
     18 C         143.0000  142.2349  168.6920 C.1     1  UNL1        0.1017
     19 N         144.1719  142.8686  169.3812 N.1     1  UNL1       -0.1908
     20 C         142.7350  138.2886  160.8660 C.3     1  UNL1        0.0769
     21 C         144.0696  138.9282  161.1100 C.3     1  UNL1        0.0437
     22 C         144.1811  140.0997  162.0403 C.ar    1  UNL1       -0.0210
     23 C         144.7876  139.9222  163.4006 C.ar    1  UNL1       -0.0040
     24 C         144.8990  141.0936  164.3308 C.ar    1  UNL1        0.0059
     25 C         144.4039  142.4426  163.9006 C.ar    1  UNL1        0.0751
     26 C         143.7973  142.6202  162.5403 C.ar    1  UNL1        0.0272
     27 C         143.6859  141.4487  161.6101 C.ar    1  UNL1       -0.0047
     28 C         143.3992  144.0590  162.3945 C.3     1  UNL1        0.2356
     29 O         143.7597  144.7707  163.6648 O.3     1  UNL1       -0.4404
     30 C         144.3806  143.7717  164.5956 C.2     1  UNL1        0.3413
     31 O         144.8891  144.0525  165.9786 O.2     1  UNL1       -0.2449
@<TRIPOS>BOND
     1    15    16    1
     2    16     9    1
     3     9    10   ar
     4    10    11   ar
     5    11     8    1
     6     8     7    1
     7     7     1    1
     8     1     2    1
     9     2     3    1
    10     3     4    1
    11     4    20    1
    12    20    21    1
    13    21    22    1
    14    22    23   ar
    15    23    24   ar
    16    24    25   ar
    17    25    26   ar
    18    26    27   ar
    19    26    28    1
    20    28    29    1
    21    29    30    1
    22    30    31    2
    23     4     5    1
    24     5     6    1
    25    11    12   ar
    26    12    13   ar
    27    13    14   ar
    28    14    18    1
    29    18    19    3
    30    14     9   ar
    31     6     1    1
    32    27    22   ar
    33    30    25    1
    34    16    17    1
@<TRIPOS>MOLECULE
*****
 31 34 0 0 0
SMALL
GASTEIGER

@<TRIPOS>ATOM
      1 N         142.4378  140.4255  161.7800 N.3     1  UNL1       -0.2700
      2 C         143.4289  140.0416  162.8385 C.3     1  UNL1        0.0897
      3 C         143.8052  141.0260  163.9058 C.3     1  UNL1        0.0897
      4 N         143.1905  142.3942  163.9147 N.3     1  UNL1       -0.2700
      5 C         142.1995  142.7781  162.8563 C.3     1  UNL1        0.0897
      6 C         141.8231  141.7937  161.7889 C.3     1  UNL1        0.0897
      7 C         142.0614  139.4411  160.7126 C.3     1  UNL1        0.0769
      8 C         141.1040  138.3286  161.0221 C.3     1  UNL1        0.0437
      9 C         138.5808  139.4115  163.8876 C.ar    1  UNL1        0.0541
     10 C         139.3400  139.4093  162.5940 C.ar    1  UNL1        0.0108
     11 C         140.3448  138.3308  162.3158 C.ar    1  UNL1       -0.0195
     12 C         140.5903  137.2545  163.3313 C.ar    1  UNL1       -0.0035
     13 C         139.8310  137.2567  164.6250 C.ar    1  UNL1        0.0112
     14 C         138.8263  138.3352  164.9031 C.ar    1  UNL1        0.0815
     15 C         137.2684  141.5171  163.1168 C.3     1  UNL1        0.1085
     16 N         137.5760  140.4900  164.1658 N.pl3   1  UNL1       -0.3308
     17 H         137.1185  140.5237  165.0369 H       1  UNL1        0.1469
     18 C         138.0670  138.3374  166.1968 C.1     1  UNL1        0.1017
     19 N         137.3078  138.3395  167.4905 N.1     1  UNL1       -0.1908
     20 C         143.5670  143.3786  164.9822 C.3     1  UNL1        0.0769
     21 C         143.9276  142.8946  166.3553 C.3     1  UNL1        0.0437
     22 C         142.8515  142.4452  167.2988 C.ar    1  UNL1       -0.0210
     23 C         141.4823  142.1246  166.7769 C.ar    1  UNL1       -0.0040
     24 C         140.4063  141.6752  167.7205 C.ar    1  UNL1        0.0059
     25 C         140.6996  141.5465  169.1859 C.ar    1  UNL1        0.0751
     26 C         142.0688  141.8671  169.7078 C.ar    1  UNL1        0.0272
     27 C         143.1448  142.3165  168.7643 C.ar    1  UNL1       -0.0047
     28 C         142.0620  141.6488  171.1918 C.3     1  UNL1        0.2356
     29 O         140.6886  141.1932  171.5871 O.3     1  UNL1       -0.4404
     30 C         139.8465  141.1300  170.3474 C.2     1  UNL1        0.3413
     31 O         138.4047  140.7219  170.2808 O.2     1  UNL1       -0.2449
@<TRIPOS>BOND
     1    15    16    1
     2    16     9    1
     3     9    10   ar
     4    10    11   ar
     5    11     8    1
     6     8     7    1
     7     7     1    1
     8     1     2    1
     9     2     3    1
    10     3     4    1
    11     4    20    1
    12    20    21    1
    13    21    22    1
    14    22    23   ar
    15    23    24   ar
    16    24    25   ar
    17    25    26   ar
    18    26    27   ar
    19    26    28    1
    20    28    29    1
    21    29    30    1
    22    30    31    2
    23     4     5    1
    24     5     6    1
    25    11    12   ar
    26    12    13   ar
    27    13    14   ar
    28    14    18    1
    29    18    19    3
    30    14     9   ar
    31     6     1    1
    32    27    22   ar
    33    30    25    1
    34    16    17    1
@<TRIPOS>MOLECULE
*****
 31 34 0 0 0
SMALL
GASTEIGER

@<TRIPOS>ATOM
      1 N         141.4457  137.8844  162.0890 N.3     1  UNL1       -0.2700
      2 C         141.7999  137.4945  163.4934 C.3     1  UNL1        0.0897
      3 C         140.7759  137.6064  164.5837 C.3     1  UNL1        0.0897
      4 N         139.3977  138.1082  164.2696 N.3     1  UNL1       -0.2700
      5 C         139.0434  138.4981  162.8652 C.3     1  UNL1        0.0897
      6 C         140.0675  138.3863  161.7749 C.3     1  UNL1        0.0897
      7 C         142.4697  137.7725  160.9985 C.3     1  UNL1        0.0769
      8 C         143.8417  138.3455  161.1965 C.3     1  UNL1        0.0437
      9 C         143.7468  142.0449  162.6301 C.ar    1  UNL1        0.0541
     10 C         143.5479  140.8747  161.7131 C.ar    1  UNL1        0.0108
     11 C         144.0407  139.5157  162.1136 C.ar    1  UNL1       -0.0195
     12 C         144.7324  139.3270  163.4311 C.ar    1  UNL1       -0.0035
     13 C         144.9313  140.4973  164.3482 C.ar    1  UNL1        0.0112
     14 C         144.4385  141.8562  163.9477 C.ar    1  UNL1        0.0815
     15 C         142.5377  143.5874  160.9245 C.3     1  UNL1        0.1085
     16 N         143.2540  143.4039  162.2296 N.pl3   1  UNL1       -0.3308
     17 H         143.4006  144.1754  162.8234 H       1  UNL1        0.1469
     18 C         144.6374  143.0265  164.8647 C.1     1  UNL1        0.1017
     19 N         144.8363  144.1967  165.7817 N.1     1  UNL1       -0.1908
     20 C         138.3736  138.2201  165.3600 C.3     1  UNL1        0.0769
     21 C         138.2584  139.4878  166.1534 C.3     1  UNL1        0.0437
     22 C         138.8711  140.7552  165.6354 C.ar    1  UNL1       -0.0210
     23 C         140.2855  141.1048  165.9917 C.ar    1  UNL1       -0.0040
     24 C         140.8982  142.3721  165.4736 C.ar    1  UNL1        0.0059
     25 C         140.0963  143.2899  164.5992 C.ar    1  UNL1        0.0751
     26 C         138.6818  142.9404  164.2428 C.ar    1  UNL1        0.0272
     27 C         138.0692  141.6730  164.7609 C.ar    1  UNL1       -0.0047
     28 C         138.1409  144.0322  163.3681 C.3     1  UNL1        0.2356
     29 O         139.2210  145.0566  163.1838 O.3     1  UNL1       -0.4404
     30 C         140.4296  144.5979  163.9447 C.2     1  UNL1        0.3413
     31 O         141.7411  145.3202  164.0352 O.2     1  UNL1       -0.2449
@<TRIPOS>BOND
     1    15    16    1
     2    16     9    1
     3     9    10   ar
     4    10    11   ar
     5    11     8    1
     6     8     7    1
     7     7     1    1
     8     1     2    1
     9     2     3    1
    10     3     4    1
    11     4    20    1
    12    20    21    1
    13    21    22    1
    14    22    23   ar
    15    23    24   ar
    16    24    25   ar
    17    25    26   ar
    18    26    27   ar
    19    26    28    1
    20    28    29    1
    21    29    30    1
    22    30    31    2
    23     4     5    1
    24     5     6    1
    25    11    12   ar
    26    12    13   ar
    27    13    14   ar
    28    14    18    1
    29    18    19    3
    30    14     9   ar
    31     6     1    1
    32    27    22   ar
    33    30    25    1
    34    16    17    1
@<TRIPOS>MOLECULE
*****
 31 34 0 0 0
SMALL
GASTEIGER

@<TRIPOS>ATOM
      1 N         141.9113  137.9122  164.3438 N.3     1  UNL1       -0.2700
      2 C         142.3540  138.1654  162.9332 C.3     1  UNL1        0.0897
      3 C         143.4896  139.1068  162.6612 C.3     1  UNL1        0.0897
      4 N         144.1824  139.7951  163.7997 N.3     1  UNL1       -0.2700
      5 C         143.7397  139.5419  165.2103 C.3     1  UNL1        0.0897
      6 C         142.6041  138.6005  165.4824 C.3     1  UNL1        0.0897
      7 C         140.7756  136.9707  164.6160 C.3     1  UNL1        0.0769
      8 C         139.4276  137.5105  164.9920 C.3     1  UNL1        0.0437
      9 C         138.0561  140.5075  162.7814 C.ar    1  UNL1        0.0541
     10 C         138.4545  139.1244  163.2035 C.ar    1  UNL1        0.0108
     11 C         139.0292  138.8936  164.5698 C.ar    1  UNL1       -0.0195
     12 C         139.2053  140.0459  165.5138 C.ar    1  UNL1       -0.0035
     13 C         138.8068  141.4290  165.0916 C.ar    1  UNL1        0.0112
     14 C         138.2322  141.6598  163.7254 C.ar    1  UNL1        0.0815
     15 C         138.3481  140.5820  160.2008 C.3     1  UNL1        0.1085
     16 N         137.4815  140.7383  161.4151 N.pl3   1  UNL1       -0.3308
     17 H         136.5355  140.9924  161.3154 H       1  UNL1        0.1469
     18 C         137.8338  143.0429  163.3031 C.1     1  UNL1        0.1017
     19 N         137.4353  144.4260  162.8809 N.1     1  UNL1       -0.1908
     20 C         145.3181  140.7366  163.5275 C.3     1  UNL1        0.0769
     21 C         145.2100  142.1778  163.9288 C.3     1  UNL1        0.0437
     22 C         144.1024  143.0280  163.3805 C.ar    1  UNL1       -0.0210
     23 C         143.5356  144.1450  164.2056 C.ar    1  UNL1       -0.0040
     24 C         142.4281  144.9951  163.6573 C.ar    1  UNL1        0.0059
     25 C         141.8874  144.7282  162.2839 C.ar    1  UNL1        0.0751
     26 C         142.4542  143.6112  161.4587 C.ar    1  UNL1        0.0272
     27 C         143.5617  142.7611  162.0070 C.ar    1  UNL1       -0.0047
     28 C         141.7243  143.5862  160.1485 C.3     1  UNL1        0.2356
     29 O         140.7063  144.6879  160.1639 O.3     1  UNL1       -0.4404
     30 C         140.8071  145.3937  161.4836 C.2     1  UNL1        0.3413
     31 O         139.9740  146.5601  161.9256 O.2     1  UNL1       -0.2449
@<TRIPOS>BOND
     1    15    16    1
     2    16     9    1
     3     9    10   ar
     4    10    11   ar
     5    11     8    1
     6     8     7    1
     7     7     1    1
     8     1     2    1
     9     2     3    1
    10     3     4    1
    11     4    20    1
    12    20    21    1
    13    21    22    1
    14    22    23   ar
    15    23    24   ar
    16    24    25   ar
    17    25    26   ar
    18    26    27   ar
    19    26    28    1
    20    28    29    1
    21    29    30    1
    22    30    31    2
    23     4     5    1
    24     5     6    1
    25    11    12   ar
    26    12    13   ar
    27    13    14   ar
    28    14    18    1
    29    18    19    3
    30    14     9   ar
    31     6     1    1
    32    27    22   ar
    33    30    25    1
    34    16    17    1
