@<TRIPOS>MOLECULE
*****
 44 48 0 0 0
SMALL
GASTEIGER

@<TRIPOS>ATOM
      1 C         140.5062  141.7801  163.0646 C.ar    1  UNL1        0.1357
      2 N         141.4673  141.2669  162.0337 N.ar    1  UNL1       -0.2296
      3 C         141.7481  142.3793  161.0674 C.ar    1  UNL1        0.1014
      4 C         140.9605  143.5800  161.5011 C.ar    1  UNL1        0.1141
      5 C         140.8431  144.9626  160.9316 C.ar    1  UNL1        0.1432
      6 N         141.6107  145.3330  159.6972 N.pl3   1  UNL1       -0.3414
      7 N         139.9582  145.9749  161.5964 N.ar    1  UNL1       -0.2265
      8 C         139.1907  145.6046  162.8308 C.ar    1  UNL1        0.1193
      9 C         139.3080  144.2219  163.4003 C.ar    1  UNL1        0.1020
     10 N         140.1930  143.2096  162.7355 N.ar    1  UNL1       -0.2877
     11 H         142.1915  144.6685  159.2608 H       1  UNL1        0.1438
     12 H         141.5336  146.2405  159.3234 H       1  UNL1        0.1438
     13 C         139.8946  141.1558  168.1868 C.2     1  UNL1        0.2283
     14 O         140.6911  142.4026  168.4338 O.2     1  UNL1       -0.2748
     15 N         139.6492  140.6884  166.7827 N.am    1  UNL1       -0.2772
     16 C         138.8527  139.4416  166.5357 C.3     1  UNL1        0.1051
     17 C         138.6074  138.9743  165.1316 C.3     1  UNL1        0.0795
     18 S         139.1586  139.7538  163.9746 S.3     1  UNL1       -0.1300
     19 C         139.9550  141.0006  164.2216 C.3     1  UNL1        0.1243
     20 C         140.2004  141.4679  165.6258 C.3     1  UNL1        0.1117
     21 C         139.3435  140.3763  169.3437 C.3     1  UNL1        0.1172
     22 C         140.2357  140.0052  170.4911 C.3     1  UNL1        0.1518
     23 C         141.8634  141.8091  171.4109 C.3     1  UNL1        0.1741
     24 O         140.5876  141.0292  171.5292 O.3     1  UNL1       -0.3506
     25 C         142.6569  142.3042  159.8764 C.ar    1  UNL1        0.0192
     26 C         142.1150  141.8743  158.5453 C.ar    1  UNL1        0.0017
     27 C         143.0238  141.7993  157.3543 C.ar    1  UNL1        0.0046
     28 C         144.4745  142.1541  157.4943 C.ar    1  UNL1        0.0537
     29 C         145.0163  142.5840  158.8253 C.ar    1  UNL1        0.0046
     30 C         144.1075  142.6590  160.0163 C.ar    1  UNL1        0.0017
     31 C         145.3833  142.0790  156.3033 C.2     1  UNL1        0.2505
     32 O         145.1595  141.0308  155.2540 O.2     1  UNL1       -0.2698
     33 N         146.5159  143.0522  156.1618 N.am    1  UNL1       -0.2658
     34 H         146.6628  143.7402  156.8505 H       1  UNL1        0.1566
     35 C         147.4248  142.9772  154.9708 C.ar    1  UNL1        0.1343
     36 C         148.6058  142.0526  154.9856 C.ar    1  UNL1        0.0383
     37 C         149.5146  141.9777  153.7946 C.ar    1  UNL1        0.0757
     38 C         149.2424  142.8274  152.5888 C.ar    1  UNL1        0.0246
     39 C         148.0613  143.7519  152.5740 C.ar    1  UNL1        0.1003
     40 N         147.1525  143.8269  153.7650 N.ar    1  UNL1       -0.2290
     41 C         150.6956  141.0531  153.8095 C.3     1  UNL1        0.4187
     42 F         151.8768  140.1285  153.8245 F       1  UNL1       -0.1659
     43 F         150.2518  140.4649  152.5030 F       1  UNL1       -0.1659
     44 F         151.1397  141.6413  155.1161 F       1  UNL1       -0.1659
@<TRIPOS>BOND
     1    23    24    1
     2    24    22    1
     3    22    21    1
     4    21    13    1
     5    13    14    2
     6    13    15   am
     7    15    16    1
     8    16    17    1
     9    17    18    1
    10    18    19    1
    11    19     1    1
    12     1     2   ar
    13     2     3   ar
    14     3    25    1
    15    25    26   ar
    16    26    27   ar
    17    27    28   ar
    18    28    31    1
    19    31    32    2
    20    31    33   am
    21    33    35    1
    22    35    36   ar
    23    36    37   ar
    24    37    41    1
    25    41    42    1
    26    41    43    1
    27    41    44    1
    28    37    38   ar
    29    38    39   ar
    30    39    40   ar
    31    28    29   ar
    32    29    30   ar
    33     3     4   ar
    34     4     5   ar
    35     5     6    1
    36     5     7   ar
    37     7     8   ar
    38     8     9   ar
    39     9    10   ar
    40    19    20    1
    41    20    15    1
    42    10     1   ar
    43    30    25   ar
    44    10     4   ar
    45    40    35   ar
    46    33    34    1
    47     6    11    1
    48     6    12    1
@<TRIPOS>MOLECULE
*****
 44 48 0 0 0
SMALL
GASTEIGER

@<TRIPOS>ATOM
      1 C         142.6461  137.6758  157.7299 C.ar    1  UNL1        0.1357
      2 N         142.4353  137.6687  159.2150 N.ar    1  UNL1       -0.2296
      3 C         142.9257  138.9777  159.7589 C.ar    1  UNL1        0.1014
      4 C         143.4396  139.7938  158.6100 C.ar    1  UNL1        0.1141
      5 C         144.0425  141.1657  158.5438 C.ar    1  UNL1        0.1432
      6 N         144.2153  141.9704  159.7978 N.pl3   1  UNL1       -0.3414
      7 N         144.4726  141.7328  157.2234 N.ar    1  UNL1       -0.2265
      8 C         144.2998  140.9282  155.9694 C.ar    1  UNL1        0.1193
      9 C         143.6969  139.5563  156.0357 C.ar    1  UNL1        0.1020
     10 N         143.2668  138.9891  157.3560 N.ar    1  UNL1       -0.2877
     11 H         143.9330  141.5981  160.6644 H       1  UNL1        0.1438
     12 H         144.6110  142.8708  159.7543 H       1  UNL1        0.1438
     13 C         143.5025  132.8877  155.9021 C.2     1  UNL1        0.2283
     14 O         144.6279  132.7161  156.8788 O.2     1  UNL1       -0.2748
     15 N         142.7256  134.1704  155.8707 N.am    1  UNL1       -0.2772
     16 C         141.6002  134.3419  154.8940 C.3     1  UNL1        0.1051
     17 C         140.8234  135.6247  154.8626 C.3     1  UNL1        0.0795
     18 S         141.1720  136.7360  155.8079 S.3     1  UNL1       -0.1300
     19 C         142.2974  136.5645  156.7846 C.3     1  UNL1        0.1243
     20 C         143.0743  135.2816  156.8160 C.3     1  UNL1        0.1117
     21 C         143.1538  131.7764  154.9568 C.3     1  UNL1        0.1172
     22 C         142.1805  130.7141  155.3744 C.3     1  UNL1        0.1518
     23 C         139.8796  129.5909  154.9337 C.3     1  UNL1        0.1741
     24 O         140.7381  130.8202  154.9765 O.3     1  UNL1       -0.3506
     25 C         142.9057  139.3971  161.1990 C.ar    1  UNL1        0.0192
     26 C         144.0700  139.0778  162.0893 C.ar    1  UNL1        0.0017
     27 C         144.0500  139.4972  163.5294 C.ar    1  UNL1        0.0046
     28 C         142.8659  140.2359  164.0791 C.ar    1  UNL1        0.0537
     29 C         141.7017  140.5551  163.1887 C.ar    1  UNL1        0.0046
     30 C         141.7217  140.1358  161.7487 C.ar    1  UNL1        0.0017
     31 C         142.8459  140.6552  165.5191 C.2     1  UNL1        0.2505
     32 O         143.6132  141.8671  165.9581 O.2     1  UNL1       -0.2698
     33 N         142.0586  139.8628  166.5201 N.am    1  UNL1       -0.2658
     34 H         141.5550  139.0674  166.2320 H       1  UNL1        0.1566
     35 C         142.0386  140.2821  167.9602 C.ar    1  UNL1        0.1343
     36 C         141.2302  141.4726  168.3837 C.ar    1  UNL1        0.0383
     37 C         141.2103  141.8918  169.8238 C.ar    1  UNL1        0.0757
     38 C         141.9986  141.1205  170.8404 C.ar    1  UNL1        0.0246
     39 C         142.8070  139.9301  170.4170 C.ar    1  UNL1        0.1003
     40 N         142.8270  139.5108  168.9769 N.ar    1  UNL1       -0.2290
     41 C         140.4019  143.0823  170.2471 C.3     1  UNL1        0.4187
     42 F         139.5935  144.2729  170.6704 F       1  UNL1       -0.1659
     43 F         139.1880  142.2111  170.3792 F       1  UNL1       -0.1659
     44 F         141.6158  143.9536  170.1150 F       1  UNL1       -0.1659
@<TRIPOS>BOND
     1    23    24    1
     2    24    22    1
     3    22    21    1
     4    21    13    1
     5    13    14    2
     6    13    15   am
     7    15    16    1
     8    16    17    1
     9    17    18    1
    10    18    19    1
    11    19     1    1
    12     1     2   ar
    13     2     3   ar
    14     3    25    1
    15    25    26   ar
    16    26    27   ar
    17    27    28   ar
    18    28    31    1
    19    31    32    2
    20    31    33   am
    21    33    35    1
    22    35    36   ar
    23    36    37   ar
    24    37    41    1
    25    41    42    1
    26    41    43    1
    27    41    44    1
    28    37    38   ar
    29    38    39   ar
    30    39    40   ar
    31    28    29   ar
    32    29    30   ar
    33     3     4   ar
    34     4     5   ar
    35     5     6    1
    36     5     7   ar
    37     7     8   ar
    38     8     9   ar
    39     9    10   ar
    40    19    20    1
    41    20    15    1
    42    10     1   ar
    43    30    25   ar
    44    10     4   ar
    45    40    35   ar
    46    33    34    1
    47     6    11    1
    48     6    12    1
@<TRIPOS>MOLECULE
*****
 44 48 0 0 0
SMALL
GASTEIGER

@<TRIPOS>ATOM
      1 C         139.5871  144.5065  157.1092 C.ar    1  UNL1        0.1357
      2 N         140.0920  144.5435  158.5212 N.ar    1  UNL1       -0.2296
      3 C         139.5992  143.3122  159.2220 C.ar    1  UNL1        0.1014
      4 C         138.7897  142.5143  158.2431 C.ar    1  UNL1        0.1141
      5 C         138.0585  141.2110  158.3721 C.ar    1  UNL1        0.1432
      6 N         138.0659  140.4729  159.6779 N.pl3   1  UNL1       -0.3414
      7 N         137.3198  140.6459  157.1953 N.ar    1  UNL1       -0.2265
      8 C         137.3123  141.3840  155.8895 C.ar    1  UNL1        0.1193
      9 C         138.0436  142.6873  155.7605 C.ar    1  UNL1        0.1020
     10 N         138.7823  143.2525  156.9373 N.ar    1  UNL1       -0.2877
     11 H         138.5507  140.8438  160.4503 H       1  UNL1        0.1438
     12 H         137.5860  139.6175  159.7625 H       1  UNL1        0.1438
     13 C         139.0170  149.3561  155.3325 C.2     1  UNL1        0.2283
     14 O         138.2217  149.7101  156.5540 O.2     1  UNL1       -0.2748
     15 N         139.5572  147.9667  155.1659 N.am    1  UNL1       -0.2772
     16 C         140.3526  147.6127  153.9444 C.3     1  UNL1        0.1051
     17 C         140.8927  146.2233  153.7778 C.3     1  UNL1        0.0795
     18 S         140.6376  145.1879  154.8328 S.3     1  UNL1       -0.1300
     19 C         139.8423  145.5419  156.0542 C.3     1  UNL1        0.1243
     20 C         139.3021  146.9314  156.2208 C.3     1  UNL1        0.1117
     21 C         139.2722  150.3915  154.2775 C.3     1  UNL1        0.1172
     22 C         139.5821  151.8048  154.6732 C.3     1  UNL1        0.1518
     23 C         141.3942  152.8884  153.1593 C.3     1  UNL1        0.1741
     24 O         140.9687  152.3475  154.4921 O.3     1  UNL1       -0.3506
     25 C         139.8685  142.9435  160.6508 C.ar    1  UNL1        0.0192
     26 C         138.9071  143.3561  161.7259 C.ar    1  UNL1        0.0017
     27 C         139.1764  142.9874  163.1547 C.ar    1  UNL1        0.0046
     28 C         140.4070  142.2062  163.5085 C.ar    1  UNL1        0.0537
     29 C         141.3684  141.7937  162.4335 C.ar    1  UNL1        0.0046
     30 C         141.0990  142.1624  161.0047 C.ar    1  UNL1        0.0017
     31 C         140.6764  141.8375  164.9373 C.2     1  UNL1        0.2505
     32 O         139.5435  141.7557  165.9171 O.2     1  UNL1       -0.2698
     33 N         142.0785  141.5506  165.3863 N.am    1  UNL1       -0.2658
     34 H         142.8220  141.6043  164.7432 H       1  UNL1        0.1566
     35 C         142.3479  141.1819  166.8151 C.ar    1  UNL1        0.1343
     36 C         142.7309  142.2427  167.8041 C.ar    1  UNL1        0.0383
     37 C         143.0003  141.8739  169.2329 C.ar    1  UNL1        0.0757
     38 C         142.8867  140.4444  169.6727 C.ar    1  UNL1        0.0246
     39 C         142.5037  139.3836  168.6838 C.ar    1  UNL1        0.1003
     40 N         142.2343  139.7524  167.2550 N.ar    1  UNL1       -0.2290
     41 C         143.3833  142.9347  170.2218 C.3     1  UNL1        0.4187
     42 F         143.7664  143.9956  171.2107 F       1  UNL1       -0.1659
     43 F         141.9334  143.2370  170.4592 F       1  UNL1       -0.1659
     44 F         144.8333  142.6325  169.9844 F       1  UNL1       -0.1659
@<TRIPOS>BOND
     1    23    24    1
     2    24    22    1
     3    22    21    1
     4    21    13    1
     5    13    14    2
     6    13    15   am
     7    15    16    1
     8    16    17    1
     9    17    18    1
    10    18    19    1
    11    19     1    1
    12     1     2   ar
    13     2     3   ar
    14     3    25    1
    15    25    26   ar
    16    26    27   ar
    17    27    28   ar
    18    28    31    1
    19    31    32    2
    20    31    33   am
    21    33    35    1
    22    35    36   ar
    23    36    37   ar
    24    37    41    1
    25    41    42    1
    26    41    43    1
    27    41    44    1
    28    37    38   ar
    29    38    39   ar
    30    39    40   ar
    31    28    29   ar
    32    29    30   ar
    33     3     4   ar
    34     4     5   ar
    35     5     6    1
    36     5     7   ar
    37     7     8   ar
    38     8     9   ar
    39     9    10   ar
    40    19    20    1
    41    20    15    1
    42    10     1   ar
    43    30    25   ar
    44    10     4   ar
    45    40    35   ar
    46    33    34    1
    47     6    11    1
    48     6    12    1
@<TRIPOS>MOLECULE
*****
 44 48 0 0 0
SMALL
GASTEIGER

@<TRIPOS>ATOM
      1 C         141.0282  141.5857  164.2584 C.ar    1  UNL1        0.1357
      2 N         141.2742  140.4803  163.2748 N.ar    1  UNL1       -0.2296
      3 C         140.5742  140.8335  161.9960 C.ar    1  UNL1        0.1014
      4 C         139.8957  142.1573  162.1893 C.ar    1  UNL1        0.1141
      5 C         139.0586  142.9994  161.2727 C.ar    1  UNL1        0.1432
      6 N         138.7780  142.5345  159.8745 N.pl3   1  UNL1       -0.3414
      7 N         138.5021  144.3063  161.7544 N.ar    1  UNL1       -0.2265
      8 C         138.7827  144.7712  163.1527 C.ar    1  UNL1        0.1193
      9 C         139.6198  143.9291  164.0693 C.ar    1  UNL1        0.1020
     10 N         140.1763  142.6222  163.5876 N.ar    1  UNL1       -0.2877
     11 H         139.1432  141.6766  159.5583 H       1  UNL1        0.1438
     12 H         138.2286  143.0872  159.2729 H       1  UNL1        0.1438
     13 C         140.4731  140.4752  169.3041 C.2     1  UNL1        0.2283
     14 O         139.1646  139.8025  169.0120 O.2     1  UNL1       -0.2748
     15 N         141.2662  141.0892  168.1887 N.am    1  UNL1       -0.2772
     16 C         142.5747  141.7619  168.4807 C.3     1  UNL1        0.1051
     17 C         143.3677  142.3759  167.3653 C.3     1  UNL1        0.0795
     18 S         142.8522  142.3171  165.9579 S.3     1  UNL1       -0.1300
     19 C         141.5437  141.6445  165.6658 C.3     1  UNL1        0.1243
     20 C         140.7507  141.0304  166.7813 C.3     1  UNL1        0.1117
     21 C         140.9886  140.5339  170.7115 C.3     1  UNL1        0.1172
     22 C         140.8589  141.8000  171.5055 C.3     1  UNL1        0.1518
     23 C         140.3027  143.9644  170.1806 C.3     1  UNL1        0.1741
     24 O         139.8724  142.8498  171.0874 O.3     1  UNL1       -0.3506
     25 C         140.5560  140.0080  160.7438 C.ar    1  UNL1        0.0192
     26 C         141.6921  140.0993  159.7686 C.ar    1  UNL1        0.0017
     27 C         141.6739  139.2738  158.5163 C.ar    1  UNL1        0.0046
     28 C         140.5195  138.3569  158.2392 C.ar    1  UNL1        0.0537
     29 C         139.3834  138.2656  159.2143 C.ar    1  UNL1        0.0046
     30 C         139.4017  139.0911  160.4666 C.ar    1  UNL1        0.0017
     31 C         140.5013  137.5313  156.9869 C.2     1  UNL1        0.2505
     32 O         139.2151  137.3256  156.2429 O.2     1  UNL1       -0.2698
     33 N         141.7691  136.9116  156.4788 N.am    1  UNL1       -0.2658
     34 H         142.6132  137.0466  156.9671 H       1  UNL1        0.1566
     35 C         141.7510  136.0860  155.2265 C.ar    1  UNL1        0.1343
     36 C         141.7842  134.5889  155.3145 C.ar    1  UNL1        0.0383
     37 C         141.7660  133.7635  154.0622 C.ar    1  UNL1        0.0757
     38 C         141.7146  134.4350  152.7219 C.ar    1  UNL1        0.0246
     39 C         141.6814  135.9320  152.6339 C.ar    1  UNL1        0.1003
     40 N         141.6996  136.7575  153.8862 N.ar    1  UNL1       -0.2290
     41 C         141.7993  132.2664  154.1502 C.3     1  UNL1        0.4187
     42 F         141.8326  130.7693  154.2383 F       1  UNL1       -0.1659
     43 F         140.6748  132.2998  155.1424 F       1  UNL1       -0.1659
     44 F         142.9238  132.2330  153.1580 F       1  UNL1       -0.1659
@<TRIPOS>BOND
     1    23    24    1
     2    24    22    1
     3    22    21    1
     4    21    13    1
     5    13    14    2
     6    13    15   am
     7    15    16    1
     8    16    17    1
     9    17    18    1
    10    18    19    1
    11    19     1    1
    12     1     2   ar
    13     2     3   ar
    14     3    25    1
    15    25    26   ar
    16    26    27   ar
    17    27    28   ar
    18    28    31    1
    19    31    32    2
    20    31    33   am
    21    33    35    1
    22    35    36   ar
    23    36    37   ar
    24    37    41    1
    25    41    42    1
    26    41    43    1
    27    41    44    1
    28    37    38   ar
    29    38    39   ar
    30    39    40   ar
    31    28    29   ar
    32    29    30   ar
    33     3     4   ar
    34     4     5   ar
    35     5     6    1
    36     5     7   ar
    37     7     8   ar
    38     8     9   ar
    39     9    10   ar
    40    19    20    1
    41    20    15    1
    42    10     1   ar
    43    30    25   ar
    44    10     4   ar
    45    40    35   ar
    46    33    34    1
    47     6    11    1
    48     6    12    1
@<TRIPOS>MOLECULE
*****
 44 48 0 0 0
SMALL
GASTEIGER

@<TRIPOS>ATOM
      1 C         140.8811  141.3574  164.0783 C.ar    1  UNL1        0.1357
      2 N         142.0287  141.0486  163.1631 N.ar    1  UNL1       -0.2296
      3 C         141.7215  141.6393  161.8190 C.ar    1  UNL1        0.1014
      4 C         140.3840  142.3132  161.9035 C.ar    1  UNL1        0.1141
      5 C         139.5721  143.0629  160.8893 C.ar    1  UNL1        0.1432
      6 N         140.0915  143.2371  159.4929 N.pl3   1  UNL1       -0.3414
      7 N         138.2407  143.6384  161.2715 N.ar    1  UNL1       -0.2265
      8 C         137.7213  143.4642  162.6679 C.ar    1  UNL1        0.1193
      9 C         138.5332  142.7145  163.6821 C.ar    1  UNL1        0.1020
     10 N         139.8646  142.1390  163.2999 N.ar    1  UNL1       -0.2877
     11 H         140.9653  142.8594  159.2421 H       1  UNL1        0.1438
     12 H         139.5585  143.7292  158.8273 H       1  UNL1        0.1438
     13 C         142.6285  141.5986  168.9659 C.2     1  UNL1        0.2283
     14 O         143.7254  142.5233  168.5281 O.2     1  UNL1       -0.2748
     15 N         141.6432  141.0759  167.9630 N.am    1  UNL1       -0.2772
     16 C         140.5463  140.1511  168.4007 C.3     1  UNL1        0.1051
     17 C         139.5611  139.6285  167.3977 C.3     1  UNL1        0.0795
     18 S         139.6727  140.0306  165.9569 S.3     1  UNL1       -0.1300
     19 C         140.7695  140.9553  165.5191 C.3     1  UNL1        0.1243
     20 C         141.7548  141.4780  166.5222 C.3     1  UNL1        0.1117
     21 C         142.5169  141.1965  170.4067 C.3     1  UNL1        0.1172
     22 C         143.1418  139.9171  170.8789 C.3     1  UNL1        0.1518
     23 C         143.5457  137.3679  170.5820 C.3     1  UNL1        0.1741
     24 O         142.8758  138.6366  170.1443 O.3     1  UNL1       -0.3506
     25 C         142.5979  141.5685  160.6037 C.ar    1  UNL1        0.0192
     26 C         142.5555  140.3587  159.7179 C.ar    1  UNL1        0.0017
     27 C         143.4319  140.2879  158.5025 C.ar    1  UNL1        0.0046
     28 C         144.3506  141.4269  158.1730 C.ar    1  UNL1        0.0537
     29 C         144.3929  142.6367  159.0588 C.ar    1  UNL1        0.0046
     30 C         143.5166  142.7075  160.2741 C.ar    1  UNL1        0.0017
     31 C         145.2270  141.3562  156.9577 C.2     1  UNL1        0.2505
     32 O         145.4388  140.0448  156.2611 O.2     1  UNL1       -0.2698
     33 N         145.8916  142.5969  156.4392 N.am    1  UNL1       -0.2658
     34 H         145.7525  143.4576  156.8964 H       1  UNL1        0.1566
     35 C         146.7680  142.5262  155.2238 C.ar    1  UNL1        0.1343
     36 C         148.2027  142.1094  155.3569 C.ar    1  UNL1        0.0383
     37 C         149.0791  142.0388  154.1416 C.ar    1  UNL1        0.0757
     38 C         148.5206  142.3850  152.7931 C.ar    1  UNL1        0.0246
     39 C         147.0859  142.8018  152.6600 C.ar    1  UNL1        0.1003
     40 N         146.2096  142.8724  153.8754 N.ar    1  UNL1       -0.2290
     41 C         150.5138  141.6219  154.2747 C.3     1  UNL1        0.4187
     42 F         151.9486  141.2051  154.4079 F       1  UNL1       -0.1659
     43 F         150.4821  141.9779  155.7315 F       1  UNL1       -0.1659
     44 F         150.5456  141.2659  152.8179 F       1  UNL1       -0.1659
@<TRIPOS>BOND
     1    23    24    1
     2    24    22    1
     3    22    21    1
     4    21    13    1
     5    13    14    2
     6    13    15   am
     7    15    16    1
     8    16    17    1
     9    17    18    1
    10    18    19    1
    11    19     1    1
    12     1     2   ar
    13     2     3   ar
    14     3    25    1
    15    25    26   ar
    16    26    27   ar
    17    27    28   ar
    18    28    31    1
    19    31    32    2
    20    31    33   am
    21    33    35    1
    22    35    36   ar
    23    36    37   ar
    24    37    41    1
    25    41    42    1
    26    41    43    1
    27    41    44    1
    28    37    38   ar
    29    38    39   ar
    30    39    40   ar
    31    28    29   ar
    32    29    30   ar
    33     3     4   ar
    34     4     5   ar
    35     5     6    1
    36     5     7   ar
    37     7     8   ar
    38     8     9   ar
    39     9    10   ar
    40    19    20    1
    41    20    15    1
    42    10     1   ar
    43    30    25   ar
    44    10     4   ar
    45    40    35   ar
    46    33    34    1
    47     6    11    1
    48     6    12    1
@<TRIPOS>MOLECULE
*****
 44 48 0 0 0
SMALL
GASTEIGER

@<TRIPOS>ATOM
      1 C         137.8437  140.3480  157.1048 C.ar    1  UNL1        0.1357
      2 N         137.8729  140.8042  158.5334 N.ar    1  UNL1       -0.2296
      3 C         139.0389  140.1437  159.2072 C.ar    1  UNL1        0.1014
      4 C         139.7304  139.2791  158.1950 C.ar    1  UNL1        0.1141
      5 C         140.9372  138.3933  158.2886 C.ar    1  UNL1        0.1432
      6 N         141.6759  138.2670  159.5880 N.pl3   1  UNL1       -0.3414
      7 N         141.4053  137.6337  157.0829 N.ar    1  UNL1       -0.2265
      8 C         140.6666  137.7600  155.7835 C.ar    1  UNL1        0.1193
      9 C         139.4598  138.6459  155.6899 C.ar    1  UNL1        0.1020
     10 N         138.9917  139.4054  156.8956 N.ar    1  UNL1       -0.2877
     11 H         141.3686  138.7655  160.3794 H       1  UNL1        0.1438
     12 H         142.4680  137.6855  159.6494 H       1  UNL1        0.1438
     13 C         132.9072  141.0576  155.6461 C.2     1  UNL1        0.2283
     14 O         132.4418  140.5850  156.9915 O.2     1  UNL1       -0.2748
     15 N         134.3740  141.1165  155.3380 N.am    1  UNL1       -0.2772
     16 C         134.8395  141.5890  153.9927 C.3     1  UNL1        0.1051
     17 C         136.3064  141.6479  153.6847 C.3     1  UNL1        0.0795
     18 S         137.3077  141.2342  154.7221 S.3     1  UNL1       -0.1300
     19 C         136.8423  140.7617  156.0674 C.3     1  UNL1        0.1243
     20 C         135.3754  140.7028  156.3754 C.3     1  UNL1        0.1117
     21 C         131.9059  141.4713  154.6087 C.3     1  UNL1        0.1172
     22 C         130.5300  141.9014  155.0238 C.3     1  UNL1        0.1518
     23 C         129.1279  139.9582  156.0276 C.3     1  UNL1        0.1741
     24 O         129.3819  140.9413  154.9235 O.3     1  UNL1       -0.3506
     25 C         139.4427  140.3171  160.6414 C.ar    1  UNL1        0.0192
     26 C         140.3292  141.4603  161.0380 C.ar    1  UNL1        0.0017
     27 C         140.7330  141.6337  162.4722 C.ar    1  UNL1        0.0046
     28 C         140.2502  140.6640  163.5098 C.ar    1  UNL1        0.0537
     29 C         139.3636  139.5209  163.1132 C.ar    1  UNL1        0.0046
     30 C         138.9599  139.3475  161.6790 C.ar    1  UNL1        0.0017
     31 C         140.6539  140.8375  164.9440 C.2     1  UNL1        0.2505
     32 O         140.5566  139.6820  165.8955 O.2     1  UNL1       -0.2698
     33 N         141.1549  142.1664  165.4266 N.am    1  UNL1       -0.2658
     34 H         141.2187  142.9247  164.8020 H       1  UNL1        0.1566
     35 C         141.5587  142.3399  166.8608 C.ar    1  UNL1        0.1343
     36 C         140.5380  142.7413  167.8841 C.ar    1  UNL1        0.0383
     37 C         140.9418  142.9148  169.3182 C.ar    1  UNL1        0.0757
     38 C         142.3663  142.6869  169.7291 C.ar    1  UNL1        0.0246
     39 C         143.3870  142.2856  168.7058 C.ar    1  UNL1        0.1003
     40 N         142.9832  142.1121  167.2717 N.ar    1  UNL1       -0.2290
     41 C         139.9211  143.3161  170.3414 C.3     1  UNL1        0.4187
     42 F         138.9003  143.7175  171.3647 F       1  UNL1       -0.1659
     43 F         139.4334  141.8993  170.4108 F       1  UNL1       -0.1659
     44 F         140.4088  144.7330  170.2722 F       1  UNL1       -0.1659
@<TRIPOS>BOND
     1    23    24    1
     2    24    22    1
     3    22    21    1
     4    21    13    1
     5    13    14    2
     6    13    15   am
     7    15    16    1
     8    16    17    1
     9    17    18    1
    10    18    19    1
    11    19     1    1
    12     1     2   ar
    13     2     3   ar
    14     3    25    1
    15    25    26   ar
    16    26    27   ar
    17    27    28   ar
    18    28    31    1
    19    31    32    2
    20    31    33   am
    21    33    35    1
    22    35    36   ar
    23    36    37   ar
    24    37    41    1
    25    41    42    1
    26    41    43    1
    27    41    44    1
    28    37    38   ar
    29    38    39   ar
    30    39    40   ar
    31    28    29   ar
    32    29    30   ar
    33     3     4   ar
    34     4     5   ar
    35     5     6    1
    36     5     7   ar
    37     7     8   ar
    38     8     9   ar
    39     9    10   ar
    40    19    20    1
    41    20    15    1
    42    10     1   ar
    43    30    25   ar
    44    10     4   ar
    45    40    35   ar
    46    33    34    1
    47     6    11    1
    48     6    12    1
@<TRIPOS>MOLECULE
*****
 44 48 0 0 0
SMALL
GASTEIGER

@<TRIPOS>ATOM
      1 C         143.0453  137.2372  156.7474 C.ar    1  UNL1        0.1357
      2 N         142.6433  137.3708  158.1863 N.ar    1  UNL1       -0.2296
      3 C         142.9080  138.7846  158.6121 C.ar    1  UNL1        0.1014
      4 C         143.4735  139.5247  157.4363 C.ar    1  UNL1        0.1141
      5 C         143.9222  140.9458  157.2663 C.ar    1  UNL1        0.1432
      6 N         143.8373  141.9022  158.4187 N.pl3   1  UNL1       -0.3414
      7 N         144.4557  141.4107  155.9437 N.ar    1  UNL1       -0.2265
      8 C         144.5406  140.4543  154.7912 C.ar    1  UNL1        0.1193
      9 C         144.0919  139.0332  154.9613 C.ar    1  UNL1        0.1020
     10 N         143.5584  138.5683  156.2838 N.ar    1  UNL1       -0.2877
     11 H         143.4871  141.5971  159.2868 H       1  UNL1        0.1438
     12 H         144.1318  142.8349  158.3071 H       1  UNL1        0.1438
     13 C         144.3240  132.2677  155.9293 C.2     1  UNL1        0.2283
     14 O         145.1523  132.2750  157.1798 O.2     1  UNL1       -0.2748
     15 N         143.5902  133.5064  155.5085 N.am    1  UNL1       -0.2772
     16 C         142.7618  133.4991  154.2580 C.3     1  UNL1        0.1051
     17 C         142.0280  134.7379  153.8373 C.3     1  UNL1        0.0795
     18 S         142.1225  135.9839  154.6671 S.3     1  UNL1       -0.1300
     19 C         142.9508  135.9912  155.9176 C.3     1  UNL1        0.1243
     20 C         143.6847  134.7524  156.3383 C.3     1  UNL1        0.1117
     21 C         144.2295  131.0217  155.0995 C.3     1  UNL1        0.1172
     22 C         144.7654  129.7249  155.6299 C.3     1  UNL1        0.1518
     23 C         144.7311  128.7389  158.0333 C.3     1  UNL1        0.1741
     24 O         144.0400  129.0073  156.7294 O.3     1  UNL1       -0.3506
     25 C         142.6520  139.3576  159.9745 C.ar    1  UNL1        0.0192
     26 C         141.3360  140.0103  160.2785 C.ar    1  UNL1        0.0017
     27 C         141.0801  140.5834  161.6409 C.ar    1  UNL1        0.0046
     28 C         142.1400  140.5038  162.6993 C.ar    1  UNL1        0.0537
     29 C         143.4559  139.8511  162.3952 C.ar    1  UNL1        0.0046
     30 C         143.7119  139.2781  161.0329 C.ar    1  UNL1        0.0017
     31 C         141.8841  141.0768  164.0617 C.2     1  UNL1        0.2505
     32 O         141.2843  142.4448  164.1993 O.2     1  UNL1       -0.2698
     33 N         142.2280  140.2819  165.2863 N.am    1  UNL1       -0.2658
     34 H         142.6216  139.3841  165.1959 H       1  UNL1        0.1566
     35 C         141.9720  140.8549  166.6487 C.ar    1  UNL1        0.1343
     36 C         140.7261  140.4833  167.3968 C.ar    1  UNL1        0.0383
     37 C         140.4703  141.0563  168.7592 C.ar    1  UNL1        0.0757
     38 C         141.4604  142.0010  169.3736 C.ar    1  UNL1        0.0246
     39 C         142.7063  142.3725  168.6255 C.ar    1  UNL1        0.1003
     40 N         142.9621  141.7995  167.2631 N.ar    1  UNL1       -0.2290
     41 C         139.2244  140.6847  169.5072 C.3     1  UNL1        0.4187
     42 F         137.9784  140.3130  170.2552 F       1  UNL1       -0.1659
     43 F         139.5877  141.6530  170.5937 F       1  UNL1       -0.1659
     44 F         138.8610  139.7163  168.4208 F       1  UNL1       -0.1659
@<TRIPOS>BOND
     1    23    24    1
     2    24    22    1
     3    22    21    1
     4    21    13    1
     5    13    14    2
     6    13    15   am
     7    15    16    1
     8    16    17    1
     9    17    18    1
    10    18    19    1
    11    19     1    1
    12     1     2   ar
    13     2     3   ar
    14     3    25    1
    15    25    26   ar
    16    26    27   ar
    17    27    28   ar
    18    28    31    1
    19    31    32    2
    20    31    33   am
    21    33    35    1
    22    35    36   ar
    23    36    37   ar
    24    37    41    1
    25    41    42    1
    26    41    43    1
    27    41    44    1
    28    37    38   ar
    29    38    39   ar
    30    39    40   ar
    31    28    29   ar
    32    29    30   ar
    33     3     4   ar
    34     4     5   ar
    35     5     6    1
    36     5     7   ar
    37     7     8   ar
    38     8     9   ar
    39     9    10   ar
    40    19    20    1
    41    20    15    1
    42    10     1   ar
    43    30    25   ar
    44    10     4   ar
    45    40    35   ar
    46    33    34    1
    47     6    11    1
    48     6    12    1
@<TRIPOS>MOLECULE
*****
 44 48 0 0 0
SMALL
GASTEIGER

@<TRIPOS>ATOM
      1 C         142.5948  139.8284  158.9096 C.ar    1  UNL1        0.1357
      2 N         142.0334  138.4629  158.6450 N.ar    1  UNL1       -0.2296
      3 C         142.6780  137.9301  157.3997 C.ar    1  UNL1        0.1014
      4 C         143.6377  138.9664  156.8948 C.ar    1  UNL1        0.1141
      5 C         144.5518  138.9932  155.7058 C.ar    1  UNL1        0.1432
      6 N         144.6032  137.8200  154.7726 N.pl3   1  UNL1       -0.3414
      7 N         145.4145  140.1933  155.4500 N.ar    1  UNL1       -0.2265
      8 C         145.3631  141.3666  156.3832 C.ar    1  UNL1        0.1193
      9 C         144.4490  141.3397  157.5721 C.ar    1  UNL1        0.1020
     10 N         143.5864  140.1396  157.8279 N.ar    1  UNL1       -0.2877
     11 H         144.0369  137.0323  154.9405 H       1  UNL1        0.1438
     12 H         145.2031  137.8376  153.9922 H       1  UNL1        0.1438
     13 C         139.2948  143.1712  161.1312 C.2     1  UNL1        0.2283
     14 O         138.3765  143.0487  159.9515 O.2     1  UNL1       -0.2748
     15 N         140.5789  142.3968  161.1657 N.am    1  UNL1       -0.2772
     16 C         141.4972  142.5193  162.3454 C.3     1  UNL1        0.1051
     17 C         142.7814  141.7449  162.3799 C.3     1  UNL1        0.0795
     18 S         143.1472  140.8479  161.2346 S.3     1  UNL1       -0.1300
     19 C         142.2290  140.7254  160.0549 C.3     1  UNL1        0.1243
     20 C         140.9448  141.4999  160.0205 C.3     1  UNL1        0.1117
     21 C         138.9289  144.0681  162.2765 C.3     1  UNL1        0.1172
     22 C         137.7105  143.7735  163.1004 C.3     1  UNL1        0.1518
     23 C         138.8515  144.8363  165.1784 C.3     1  UNL1        0.1741
     24 O         137.6482  144.2163  164.5322 O.3     1  UNL1       -0.3506
     25 C         142.4098  136.5954  156.7700 C.ar    1  UNL1        0.0192
     26 C         143.2432  135.4067  157.1480 C.ar    1  UNL1        0.0017
     27 C         142.9750  134.0720  156.5183 C.ar    1  UNL1        0.0046
     28 C         141.8737  133.9258  155.5105 C.ar    1  UNL1        0.0537
     29 C         141.0404  135.1144  155.1325 C.ar    1  UNL1        0.0046
     30 C         141.3086  136.4492  155.7622 C.ar    1  UNL1        0.0017
     31 C         141.6056  132.5911  154.8807 C.2     1  UNL1        0.2505
     32 O         140.9322  132.5149  153.5425 O.2     1  UNL1       -0.2698
     33 N         142.0108  131.3326  155.5892 N.am    1  UNL1       -0.2658
     34 H         142.4528  131.3827  156.4675 H       1  UNL1        0.1566
     35 C         141.7427  129.9978  154.9595 C.ar    1  UNL1        0.1343
     36 C         140.4516  129.2851  155.2332 C.ar    1  UNL1        0.0383
     37 C         140.1836  127.9503  154.6034 C.ar    1  UNL1        0.0757
     38 C         141.2067  127.3283  153.7001 C.ar    1  UNL1        0.0246
     39 C         142.4979  128.0410  153.4264 C.ar    1  UNL1        0.1003
     40 N         142.7659  129.3758  154.0561 N.ar    1  UNL1       -0.2290
     41 C         138.8924  127.2377  154.8772 C.3     1  UNL1        0.4187
     42 F         137.6011  126.5250  155.1508 F       1  UNL1       -0.1659
     43 F         139.1200  127.3915  156.3518 F       1  UNL1       -0.1659
     44 F         138.6647  127.0838  153.4025 F       1  UNL1       -0.1659
@<TRIPOS>BOND
     1    23    24    1
     2    24    22    1
     3    22    21    1
     4    21    13    1
     5    13    14    2
     6    13    15   am
     7    15    16    1
     8    16    17    1
     9    17    18    1
    10    18    19    1
    11    19     1    1
    12     1     2   ar
    13     2     3   ar
    14     3    25    1
    15    25    26   ar
    16    26    27   ar
    17    27    28   ar
    18    28    31    1
    19    31    32    2
    20    31    33   am
    21    33    35    1
    22    35    36   ar
    23    36    37   ar
    24    37    41    1
    25    41    42    1
    26    41    43    1
    27    41    44    1
    28    37    38   ar
    29    38    39   ar
    30    39    40   ar
    31    28    29   ar
    32    29    30   ar
    33     3     4   ar
    34     4     5   ar
    35     5     6    1
    36     5     7   ar
    37     7     8   ar
    38     8     9   ar
    39     9    10   ar
    40    19    20    1
    41    20    15    1
    42    10     1   ar
    43    30    25   ar
    44    10     4   ar
    45    40    35   ar
    46    33    34    1
    47     6    11    1
    48     6    12    1
@<TRIPOS>MOLECULE
*****
 44 48 0 0 0
SMALL
GASTEIGER

@<TRIPOS>ATOM
      1 C         140.6030  137.9812  156.8690 C.ar    1  UNL1        0.1357
      2 N         141.0983  137.8356  158.2774 N.ar    1  UNL1       -0.2296
      3 C         140.3068  138.7680  159.1457 C.ar    1  UNL1        0.1014
      4 C         139.3223  139.4898  158.2741 C.ar    1  UNL1        0.1141
      5 C         138.2829  140.5271  158.5799 C.ar    1  UNL1        0.1432
      6 N         138.0998  141.0134  159.9870 N.pl3   1  UNL1       -0.3414
      7 N         137.4265  141.0781  157.4786 N.ar    1  UNL1       -0.2265
      8 C         137.6096  140.5918  156.0714 C.ar    1  UNL1        0.1193
      9 C         138.6490  139.5545  155.7656 C.ar    1  UNL1        0.1020
     10 N         139.5054  139.0036  156.8670 N.ar    1  UNL1       -0.2877
     11 H         138.6619  140.6517  160.7099 H       1  UNL1        0.1438
     12 H         137.4175  141.6942  160.1877 H       1  UNL1        0.1438
     13 C         141.7507  133.4923  154.5169 C.2     1  UNL1        0.2283
     14 O         141.2999  132.7395  155.7335 O.2     1  UNL1       -0.2748
     15 N         141.6892  134.9908  154.4966 N.am    1  UNL1       -0.2772
     16 C         142.1401  135.7436  153.2800 C.3     1  UNL1        0.1051
     17 C         142.0786  137.2422  153.2597 C.3     1  UNL1        0.0795
     18 S         141.5662  137.9880  154.4561 S.3     1  UNL1       -0.1300
     19 C         141.1154  137.2353  155.6727 C.3     1  UNL1        0.1243
     20 C         141.1769  135.7367  155.6929 C.3     1  UNL1        0.1117
     21 C         142.2631  132.7464  153.3205 C.3     1  UNL1        0.1172
     22 C         142.6664  131.3074  153.4500 C.3     1  UNL1        0.1518
     23 C         144.1837  130.6644  155.4585 C.3     1  UNL1        0.1741
     24 O         144.0180  130.9535  153.9960 O.3     1  UNL1       -0.3506
     25 C         140.4709  138.9471  160.6259 C.ar    1  UNL1        0.0192
     26 C         141.4737  139.9288  161.1560 C.ar    1  UNL1        0.0017
     27 C         141.6378  140.1080  162.6362 C.ar    1  UNL1        0.0046
     28 C         140.7992  139.3055  163.5864 C.ar    1  UNL1        0.0537
     29 C         139.7966  138.3238  163.0563 C.ar    1  UNL1        0.0046
     30 C         139.6324  138.1447  161.5761 C.ar    1  UNL1        0.0017
     31 C         140.9633  139.4846  165.0666 C.2     1  UNL1        0.2505
     32 O         141.9725  138.6643  165.8140 O.2     1  UNL1       -0.2698
     33 N         140.1182  140.4840  165.7992 N.am    1  UNL1       -0.2658
     34 H         139.4559  141.0224  165.3086 H       1  UNL1        0.1566
     35 C         140.2823  140.6632  167.2795 C.ar    1  UNL1        0.1343
     36 C         141.4384  141.4543  167.8157 C.ar    1  UNL1        0.0383
     37 C         141.6024  141.6334  169.2959 C.ar    1  UNL1        0.0757
     38 C         140.6102  141.0215  170.2399 C.ar    1  UNL1        0.0246
     39 C         139.4541  140.2305  169.7037 C.ar    1  UNL1        0.1003
     40 N         139.2901  140.0513  168.2235 N.ar    1  UNL1       -0.2290
     41 C         142.7585  142.4245  169.8320 C.3     1  UNL1        0.4187
     42 F         143.9148  143.2155  170.3682 F       1  UNL1       -0.1659
     43 F         141.8781  143.6335  169.9470 F       1  UNL1       -0.1659
     44 F         143.6391  141.2155  169.7171 F       1  UNL1       -0.1659
@<TRIPOS>BOND
     1    23    24    1
     2    24    22    1
     3    22    21    1
     4    21    13    1
     5    13    14    2
     6    13    15   am
     7    15    16    1
     8    16    17    1
     9    17    18    1
    10    18    19    1
    11    19     1    1
    12     1     2   ar
    13     2     3   ar
    14     3    25    1
    15    25    26   ar
    16    26    27   ar
    17    27    28   ar
    18    28    31    1
    19    31    32    2
    20    31    33   am
    21    33    35    1
    22    35    36   ar
    23    36    37   ar
    24    37    41    1
    25    41    42    1
    26    41    43    1
    27    41    44    1
    28    37    38   ar
    29    38    39   ar
    30    39    40   ar
    31    28    29   ar
    32    29    30   ar
    33     3     4   ar
    34     4     5   ar
    35     5     6    1
    36     5     7   ar
    37     7     8   ar
    38     8     9   ar
    39     9    10   ar
    40    19    20    1
    41    20    15    1
    42    10     1   ar
    43    30    25   ar
    44    10     4   ar
    45    40    35   ar
    46    33    34    1
    47     6    11    1
    48     6    12    1
