@<TRIPOS>MOLECULE
*****
 36 40 0 0 0
SMALL
GASTEIGER

@<TRIPOS>ATOM
      1 O         142.3980  146.2657  157.4840 O.2     1  UNL1       -0.2698
      2 C         141.5864  145.4094  158.4103 C.2     1  UNL1        0.2496
      3 N         141.8114  145.2461  159.8843 N.am    1  UNL1       -0.2803
      4 C         140.7713  144.3019  160.4103 C.ar    1  UNL1        0.0519
      5 C         140.5024  143.7705  161.7870 C.ar    1  UNL1        0.0293
      6 C         139.3656  142.8189  162.0147 C.ar    1  UNL1        0.0516
      7 C         138.4977  142.3986  160.8657 C.ar    1  UNL1        0.0148
      8 C         138.7666  142.9299  159.4891 C.ar    1  UNL1        0.0026
      9 C         139.9034  143.8816  159.2613 C.ar    1  UNL1        0.0180
     10 C         140.4072  144.5661  158.0253 C.2     1  UNL1        0.0563
     11 C         139.8326  144.4309  156.6464 C.2     1  UNL1        0.0215
     12 H         142.5178  145.6822  160.4137 H       1  UNL1        0.1552
     13 C         140.4461  145.1811  155.5013 C.ar    1  UNL1        0.0568
     14 C         139.9090  146.4370  154.8813 C.ar    1  UNL1        0.0185
     15 C         140.8353  146.8391  153.7722 C.ar    1  UNL1        0.0199
     16 C         141.9448  145.8319  153.7066 C.ar    1  UNL1        0.0724
     17 N         141.7042  144.8071  154.7753 N.ar    1  UNL1       -0.3520
     18 H         142.2724  144.0262  154.9666 H       1  UNL1        0.1660
     19 N         139.0966  142.2875  163.3914 N.am    1  UNL1       -0.2832
     20 C         139.3248  140.8359  163.6929 C.2     1  UNL1        0.2388
     21 O         139.8221  139.9157  162.6176 O.2     1  UNL1       -0.2739
     22 H         138.7702  142.8914  164.0971 H       1  UNL1        0.1549
     23 C         139.0559  140.3045  165.0695 C.3     1  UNL1        0.1793
     24 C         137.9842  139.2764  165.2804 C.2     1  UNL1        0.0891
     25 N         137.7152  138.7449  166.6572 N.2     1  UNL1       -0.2459
     26 C         138.5180  139.2416  167.8229 C.2     1  UNL1        0.1014
     27 C         139.5897  140.2697  167.6119 C.2     1  UNL1        0.0568
     28 C         139.8586  140.8011  166.2353 C.2     1  UNL1        0.1886
     29 O         140.9303  141.8292  166.0244 O.2     1  UNL1       -0.2904
     30 C         140.3924  140.7663  168.7776 C.ar    1  UNL1        0.0318
     31 C         139.8570  141.8697  169.6413 C.ar    1  UNL1        0.0024
     32 C         140.6598  142.3664  170.8070 C.ar    1  UNL1        0.0001
     33 C         141.9979  141.7596  171.1091 C.ar    1  UNL1        0.0023
     34 C         142.5333  140.6563  170.2455 C.ar    1  UNL1        0.0296
     35 C         141.7306  140.1596  169.0797 C.ar    1  UNL1        0.1402
     36 F         142.2660  139.0562  168.2161 F       1  UNL1       -0.2042
@<TRIPOS>BOND
     1     1     2    2
     2     2     3   am
     3     3     4    1
     4     4     5   ar
     5     5     6   ar
     6     6    19    1
     7    19    20   am
     8    20    21    2
     9    20    23    1
    10    23    24    1
    11    24    25    2
    12    25    26    1
    13    26    27    2
    14    27    30    1
    15    30    31   ar
    16    31    32   ar
    17    32    33   ar
    18    33    34   ar
    19    34    35   ar
    20    35    36    1
    21    27    28    1
    22    28    29    2
    23     6     7   ar
    24     7     8   ar
    25     8     9   ar
    26     9    10    1
    27    10    11    2
    28    11    13    1
    29    13    14   ar
    30    14    15   ar
    31    15    16   ar
    32    16    17   ar
    33    10     2    1
    34    17    13   ar
    35     9     4   ar
    36    28    23    1
    37    35    30   ar
    38     3    12    1
    39    19    22    1
    40    17    18    1
@<TRIPOS>MOLECULE
*****
 36 40 0 0 0
SMALL
GASTEIGER

@<TRIPOS>ATOM
      1 O         139.5651  139.4979  166.7437 O.2     1  UNL1       -0.2698
      2 C         140.4730  139.1901  165.5901 C.2     1  UNL1        0.2496
      3 N         140.1320  138.3401  164.4021 N.am    1  UNL1       -0.2803
      4 C         141.3295  138.3030  163.4996 C.ar    1  UNL1        0.0519
      5 C         141.5752  137.6230  162.1854 C.ar    1  UNL1        0.0293
      6 C         142.9020  137.7700  161.5014 C.ar    1  UNL1        0.0516
      7 C         143.9832  138.5971  162.1316 C.ar    1  UNL1        0.0148
      8 C         143.7375  139.2771  163.4458 C.ar    1  UNL1        0.0026
      9 C         142.4107  139.1301  164.1298 C.ar    1  UNL1        0.0180
     10 C         141.8813  139.6783  165.4217 C.2     1  UNL1        0.0563
     11 C         142.6289  140.5600  166.3776 C.2     1  UNL1        0.0215
     12 H         139.2730  137.8863  164.2427 H       1  UNL1        0.1552
     13 C         141.9656  141.0330  167.6371 C.ar    1  UNL1        0.0568
     14 C         141.3995  142.4015  167.8751 C.ar    1  UNL1        0.0185
     15 C         140.8360  142.4348  169.2648 C.ar    1  UNL1        0.0199
     16 C         141.0539  141.0869  169.8858 C.ar    1  UNL1        0.0724
     17 N         141.7520  140.2205  168.8798 N.ar    1  UNL1       -0.3520
     18 H         142.0225  139.2832  169.0120 H       1  UNL1        0.1660
     19 N         143.1478  137.0900  160.1871 N.am    1  UNL1       -0.2832
     20 C         142.6420  137.7074  158.9171 C.2     1  UNL1        0.2388
     21 O         141.8904  139.0048  158.9613 O.2     1  UNL1       -0.2739
     22 H         143.6411  136.2385  160.1581 H       1  UNL1        0.1549
     23 C         142.8877  137.0274  157.6029 C.3     1  UNL1        0.1793
     24 C         142.9511  137.8354  156.3407 C.2     1  UNL1        0.0891
     25 N         143.1968  137.1553  155.0264 N.2     1  UNL1       -0.2459
     26 C         143.3791  135.6674  154.9744 C.2     1  UNL1        0.1014
     27 C         143.3157  134.8594  156.2366 C.2     1  UNL1        0.0568
     28 C         143.0699  135.5394  157.5508 C.2     1  UNL1        0.1886
     29 O         143.0065  134.7314  158.8130 O.2     1  UNL1       -0.2904
     30 C         143.4979  133.3715  156.1846 C.ar    1  UNL1        0.0318
     31 C         144.8541  132.7734  156.4157 C.ar    1  UNL1        0.0024
     32 C         145.0363  131.2855  156.3637 C.ar    1  UNL1        0.0001
     33 C         143.8625  130.3955  156.0806 C.ar    1  UNL1        0.0023
     34 C         142.5065  130.9935  155.8495 C.ar    1  UNL1        0.0296
     35 C         142.3241  132.4815  155.9015 C.ar    1  UNL1        0.1402
     36 F         140.9681  133.0795  155.6704 F       1  UNL1       -0.2042
@<TRIPOS>BOND
     1     1     2    2
     2     2     3   am
     3     3     4    1
     4     4     5   ar
     5     5     6   ar
     6     6    19    1
     7    19    20   am
     8    20    21    2
     9    20    23    1
    10    23    24    1
    11    24    25    2
    12    25    26    1
    13    26    27    2
    14    27    30    1
    15    30    31   ar
    16    31    32   ar
    17    32    33   ar
    18    33    34   ar
    19    34    35   ar
    20    35    36    1
    21    27    28    1
    22    28    29    2
    23     6     7   ar
    24     7     8   ar
    25     8     9   ar
    26     9    10    1
    27    10    11    2
    28    11    13    1
    29    13    14   ar
    30    14    15   ar
    31    15    16   ar
    32    16    17   ar
    33    10     2    1
    34    17    13   ar
    35     9     4   ar
    36    28    23    1
    37    35    30   ar
    38     3    12    1
    39    19    22    1
    40    17    18    1
@<TRIPOS>MOLECULE
*****
 36 40 0 0 0
SMALL
GASTEIGER

@<TRIPOS>ATOM
      1 O         145.6487  140.1201  155.3579 O.2     1  UNL1       -0.2698
      2 C         145.0323  140.5165  156.6667 C.2     1  UNL1        0.2496
      3 N         143.9032  139.8121  157.3587 N.am    1  UNL1       -0.2803
      4 C         143.6098  140.5472  158.6329 C.ar    1  UNL1        0.0519
      5 C         142.6021  140.3111  159.7186 C.ar    1  UNL1        0.0293
      6 C         142.5421  141.2338  160.8997 C.ar    1  UNL1        0.0516
      7 C         143.4899  142.3925  160.9952 C.ar    1  UNL1        0.0148
      8 C         144.4976  142.6286  159.9095 C.ar    1  UNL1        0.0026
      9 C         144.5575  141.7059  158.7284 C.ar    1  UNL1        0.0180
     10 C         145.4367  141.6869  157.5132 C.2     1  UNL1        0.0563
     11 C         146.5285  142.6665  157.1995 C.2     1  UNL1        0.0215
     12 H         143.4366  139.0085  157.0337 H       1  UNL1        0.1552
     13 C         147.3286  142.5196  155.9391 C.ar    1  UNL1        0.0568
     14 C         147.1280  143.2967  154.6719 C.ar    1  UNL1        0.0185
     15 C         148.1451  142.8273  153.6744 C.ar    1  UNL1        0.0199
     16 C         148.9743  141.7601  154.3250 C.ar    1  UNL1        0.0724
     17 N         148.4697  141.5700  155.7248 N.ar    1  UNL1       -0.3520
     18 H         148.8251  140.9336  156.3866 H       1  UNL1        0.1660
     19 N         141.5343  140.9978  161.9855 N.am    1  UNL1       -0.2832
     20 C         141.8966  140.1598  163.1757 C.2     1  UNL1        0.2388
     21 O         143.2666  139.5579  163.2802 O.2     1  UNL1       -0.2739
     22 H         140.6352  141.3928  161.9169 H       1  UNL1        0.1549
     23 C         140.8889  139.9238  164.2614 C.3     1  UNL1        0.1793
     24 C         139.6502  139.1279  163.9749 C.2     1  UNL1        0.0891
     25 N         138.6425  138.8918  165.0607 N.2     1  UNL1       -0.2459
     26 C         138.8735  139.4517  166.4329 C.2     1  UNL1        0.1014
     27 C         140.1123  140.2476  166.7195 C.2     1  UNL1        0.0568
     28 C         141.1199  140.4837  165.6337 C.2     1  UNL1        0.1886
     29 O         142.3586  141.2796  165.9203 O.2     1  UNL1       -0.2904
     30 C         140.3433  140.8075  168.0917 C.ar    1  UNL1        0.0318
     31 C         140.5685  139.8825  169.2510 C.ar    1  UNL1        0.0024
     32 C         140.7996  140.4424  170.6233 C.ar    1  UNL1        0.0001
     33 C         140.8054  141.9272  170.8363 C.ar    1  UNL1        0.0023
     34 C         140.5802  142.8521  169.6771 C.ar    1  UNL1        0.0296
     35 C         140.3491  142.2923  168.3048 C.ar    1  UNL1        0.1402
     36 F         140.1239  143.2172  167.1456 F       1  UNL1       -0.2042
@<TRIPOS>BOND
     1     1     2    2
     2     2     3   am
     3     3     4    1
     4     4     5   ar
     5     5     6   ar
     6     6    19    1
     7    19    20   am
     8    20    21    2
     9    20    23    1
    10    23    24    1
    11    24    25    2
    12    25    26    1
    13    26    27    2
    14    27    30    1
    15    30    31   ar
    16    31    32   ar
    17    32    33   ar
    18    33    34   ar
    19    34    35   ar
    20    35    36    1
    21    27    28    1
    22    28    29    2
    23     6     7   ar
    24     7     8   ar
    25     8     9   ar
    26     9    10    1
    27    10    11    2
    28    11    13    1
    29    13    14   ar
    30    14    15   ar
    31    15    16   ar
    32    16    17   ar
    33    10     2    1
    34    17    13   ar
    35     9     4   ar
    36    28    23    1
    37    35    30   ar
    38     3    12    1
    39    19    22    1
    40    17    18    1
@<TRIPOS>MOLECULE
*****
 36 40 0 0 0
SMALL
GASTEIGER

@<TRIPOS>ATOM
      1 O         141.5042  142.5530  167.4460 O.2     1  UNL1       -0.2698
      2 C         140.6998  142.3663  166.1938 C.2     1  UNL1        0.2496
      3 N         140.7864  143.2095  164.9563 N.am    1  UNL1       -0.2803
      4 C         139.8076  142.6680  163.9568 C.ar    1  UNL1        0.0519
      5 C         139.4567  143.0953  162.5625 C.ar    1  UNL1        0.0293
      6 C         138.4143  142.3447  161.7880 C.ar    1  UNL1        0.0516
      7 C         137.7228  141.1667  162.4079 C.ar    1  UNL1        0.0148
      8 C         138.0737  140.7394  163.8022 C.ar    1  UNL1        0.0026
      9 C         139.1161  141.4900  164.5767 C.ar    1  UNL1        0.0180
     10 C         139.6675  141.3036  165.9592 C.2     1  UNL1        0.0563
     11 C         139.2584  140.2410  166.9356 C.2     1  UNL1        0.0215
     12 H         141.3812  143.9827  164.8233 H       1  UNL1        0.1552
     13 C         139.9015  140.1786  168.2894 C.ar    1  UNL1        0.0568
     14 C         139.2388  140.5007  169.5960 C.ar    1  UNL1        0.0185
     15 C         140.2478  140.3044  170.6883 C.ar    1  UNL1        0.0199
     16 C         141.5342  139.8610  170.0569 C.ar    1  UNL1        0.0724
     17 N         141.3201  139.7833  168.5743 N.ar    1  UNL1       -0.3520
     18 H         141.9926  139.5192  167.9055 H       1  UNL1        0.1660
     19 N         138.0634  142.7720  160.3936 N.am    1  UNL1       -0.2832
     20 C         138.5096  141.9483  159.2221 C.2     1  UNL1        0.2388
     21 O         139.3067  140.6973  159.4450 O.2     1  UNL1       -0.2739
     22 H         137.5402  143.5930  160.2473 H       1  UNL1        0.1549
     23 C         138.1587  142.3755  157.8277 C.3     1  UNL1        0.1793
     24 C         137.1519  141.5956  157.0353 C.2     1  UNL1        0.0891
     25 N         136.8010  142.0229  155.6409 N.2     1  UNL1       -0.2459
     26 C         137.4570  143.2301  155.0389 C.2     1  UNL1        0.1014
     27 C         138.4638  144.0100  155.8314 C.2     1  UNL1        0.0568
     28 C         138.8147  143.5828  157.2257 C.2     1  UNL1        0.1886
     29 O         139.8215  144.3627  158.0182 O.2     1  UNL1       -0.2904
     30 C         139.1198  145.2172  155.2294 C.ar    1  UNL1        0.0318
     31 C         138.5805  146.5867  155.5192 C.ar    1  UNL1        0.0024
     32 C         139.2364  147.7938  154.9172 C.ar    1  UNL1        0.0001
     33 C         140.4317  147.6317  154.0256 C.ar    1  UNL1        0.0023
     34 C         140.9710  146.2623  153.7358 C.ar    1  UNL1        0.0296
     35 C         140.3150  145.0551  154.3378 C.ar    1  UNL1        0.1402
     36 F         140.8543  143.6857  154.0480 F       1  UNL1       -0.2042
@<TRIPOS>BOND
     1     1     2    2
     2     2     3   am
     3     3     4    1
     4     4     5   ar
     5     5     6   ar
     6     6    19    1
     7    19    20   am
     8    20    21    2
     9    20    23    1
    10    23    24    1
    11    24    25    2
    12    25    26    1
    13    26    27    2
    14    27    30    1
    15    30    31   ar
    16    31    32   ar
    17    32    33   ar
    18    33    34   ar
    19    34    35   ar
    20    35    36    1
    21    27    28    1
    22    28    29    2
    23     6     7   ar
    24     7     8   ar
    25     8     9   ar
    26     9    10    1
    27    10    11    2
    28    11    13    1
    29    13    14   ar
    30    14    15   ar
    31    15    16   ar
    32    16    17   ar
    33    10     2    1
    34    17    13   ar
    35     9     4   ar
    36    28    23    1
    37    35    30   ar
    38     3    12    1
    39    19    22    1
    40    17    18    1
@<TRIPOS>MOLECULE
*****
 36 40 0 0 0
SMALL
GASTEIGER

@<TRIPOS>ATOM
      1 O         143.2849  142.3892  167.1813 O.2     1  UNL1       -0.2698
      2 C         143.3108  141.5394  165.9456 C.2     1  UNL1        0.2496
      3 N         143.8975  141.9275  164.6207 N.am    1  UNL1       -0.2803
      4 C         143.7038  140.7802  163.6740 C.ar    1  UNL1        0.0519
      5 C         144.0794  140.5928  162.2340 C.ar    1  UNL1        0.0293
      6 C         143.7486  139.3083  161.5337 C.ar    1  UNL1        0.0516
      7 C         143.0423  138.2111  162.2734 C.ar    1  UNL1        0.0148
      8 C         142.6667  138.3984  163.7134 C.ar    1  UNL1        0.0026
      9 C         142.9974  139.6830  164.4137 C.ar    1  UNL1        0.0180
     10 C         142.7546  140.1522  165.8176 C.2     1  UNL1        0.0563
     11 C         142.0747  139.3713  166.9030 C.2     1  UNL1        0.0215
     12 H         144.3332  142.7847  164.4096 H       1  UNL1        0.1552
     13 C         141.9026  139.9745  168.2657 C.ar    1  UNL1        0.0568
     14 C         140.6195  140.4926  168.8448 C.ar    1  UNL1        0.0185
     15 C         140.9072  141.0037  170.2253 C.ar    1  UNL1        0.0199
     16 C         142.3679  140.8015  170.4995 C.ar    1  UNL1        0.0724
     17 N         142.9831  140.1654  169.2883 N.ar    1  UNL1       -0.3520
     18 H         143.9299  139.9168  169.1831 H       1  UNL1        0.1660
     19 N         144.1242  139.1209  160.0935 N.am    1  UNL1       -0.2832
     20 C         143.2106  139.6123  159.0101 C.2     1  UNL1        0.2388
     21 O         141.9214  140.2911  159.3668 O.2     1  UNL1       -0.2739
     22 H         144.9704  138.6753  159.8595 H       1  UNL1        0.1549
     23 C         143.5861  139.4249  157.5701 C.3     1  UNL1        0.1793
     24 C         144.5168  140.3954  156.9053 C.2     1  UNL1        0.0891
     25 N         144.8924  140.2079  155.4651 N.2     1  UNL1       -0.2459
     26 C         144.3372  139.0500  154.6899 C.2     1  UNL1        0.1014
     27 C         143.4065  138.0796  155.3547 C.2     1  UNL1        0.0568
     28 C         143.0310  138.2669  156.7947 C.2     1  UNL1        0.1886
     29 O         142.1003  137.2964  157.4595 O.2     1  UNL1       -0.2904
     30 C         142.8514  136.9217  154.5794 C.ar    1  UNL1        0.0318
     31 C         141.9145  137.1663  153.4337 C.ar    1  UNL1        0.0024
     32 C         141.3593  136.0085  152.6585 C.ar    1  UNL1        0.0001
     33 C         141.7410  134.6059  153.0288 C.ar    1  UNL1        0.0023
     34 C         142.6778  134.3612  154.1744 C.ar    1  UNL1        0.0296
     35 C         143.2330  135.5191  154.9497 C.ar    1  UNL1        0.1402
     36 F         144.1699  135.2744  156.0953 F       1  UNL1       -0.2042
@<TRIPOS>BOND
     1     1     2    2
     2     2     3   am
     3     3     4    1
     4     4     5   ar
     5     5     6   ar
     6     6    19    1
     7    19    20   am
     8    20    21    2
     9    20    23    1
    10    23    24    1
    11    24    25    2
    12    25    26    1
    13    26    27    2
    14    27    30    1
    15    30    31   ar
    16    31    32   ar
    17    32    33   ar
    18    33    34   ar
    19    34    35   ar
    20    35    36    1
    21    27    28    1
    22    28    29    2
    23     6     7   ar
    24     7     8   ar
    25     8     9   ar
    26     9    10    1
    27    10    11    2
    28    11    13    1
    29    13    14   ar
    30    14    15   ar
    31    15    16   ar
    32    16    17   ar
    33    10     2    1
    34    17    13   ar
    35     9     4   ar
    36    28    23    1
    37    35    30   ar
    38     3    12    1
    39    19    22    1
    40    17    18    1
@<TRIPOS>MOLECULE
*****
 36 40 0 0 0
SMALL
GASTEIGER

@<TRIPOS>ATOM
      1 O         141.5148  140.2443  167.4535 O.2     1  UNL1       -0.2698
      2 C         141.0265  141.1633  166.3733 C.2     1  UNL1        0.2496
      3 N         141.0227  140.8710  164.9021 N.am    1  UNL1       -0.2803
      4 C         140.4502  142.0631  164.1941 C.ar    1  UNL1        0.0519
      5 C         140.2023  142.3444  162.7418 C.ar    1  UNL1        0.0293
      6 C         139.6044  143.6549  162.3231 C.ar    1  UNL1        0.0516
      7 C         139.2544  144.6839  163.3568 C.ar    1  UNL1        0.0148
      8 C         139.5022  144.4025  164.8092 C.ar    1  UNL1        0.0026
      9 C         140.1001  143.0921  165.2278 C.ar    1  UNL1        0.0180
     10 C         140.4563  142.5360  166.5746 C.2     1  UNL1        0.0563
     11 C         140.2743  143.2307  167.8915 C.2     1  UNL1        0.0215
     12 H         141.3403  140.0423  164.4759 H       1  UNL1        0.1552
     13 C         140.6792  142.5457  169.1632 C.ar    1  UNL1        0.0568
     14 C         141.9077  142.8414  169.9713 C.ar    1  UNL1        0.0185
     15 C         141.9144  141.9232  171.1574 C.ar    1  UNL1        0.0199
     16 C         140.6899  141.0600  171.0823 C.ar    1  UNL1        0.0724
     17 N         139.9265  141.4447  169.8498 N.ar    1  UNL1       -0.3520
     18 H         139.0801  141.0449  169.5450 H       1  UNL1        0.1660
     19 N         139.3566  143.9363  160.8707 N.am    1  UNL1       -0.2832
     20 C         140.4594  144.4840  160.0140 C.2     1  UNL1        0.2388
     21 O         141.8101  144.7502  160.6098 O.2     1  UNL1       -0.2739
     22 H         138.4701  143.7616  160.4797 H       1  UNL1        0.1549
     23 C         140.2116  144.7654  158.5617 C.3     1  UNL1        0.1793
     24 C         140.7969  145.9908  157.9247 C.2     1  UNL1        0.0891
     25 N         140.5490  146.2722  156.4723 N.2     1  UNL1       -0.2459
     26 C         139.7159  145.3282  155.6569 C.2     1  UNL1        0.1014
     27 C         139.1306  144.1028  156.2940 C.2     1  UNL1        0.0568
     28 C         139.3784  143.8214  157.7463 C.2     1  UNL1        0.1886
     29 O         138.7931  142.5960  158.3833 O.2     1  UNL1       -0.2904
     30 C         138.2975  143.1589  155.4786 C.ar    1  UNL1        0.0318
     31 C         136.8326  143.4217  155.2914 C.ar    1  UNL1        0.0024
     32 C         135.9995  142.4778  154.4760 C.ar    1  UNL1        0.0001
     33 C         136.6312  141.2709  153.8480 C.ar    1  UNL1        0.0023
     34 C         138.0960  141.0080  154.0352 C.ar    1  UNL1        0.0296
     35 C         138.9292  141.9520  154.8506 C.ar    1  UNL1        0.1402
     36 F         140.3940  141.6892  155.0378 F       1  UNL1       -0.2042
@<TRIPOS>BOND
     1     1     2    2
     2     2     3   am
     3     3     4    1
     4     4     5   ar
     5     5     6   ar
     6     6    19    1
     7    19    20   am
     8    20    21    2
     9    20    23    1
    10    23    24    1
    11    24    25    2
    12    25    26    1
    13    26    27    2
    14    27    30    1
    15    30    31   ar
    16    31    32   ar
    17    32    33   ar
    18    33    34   ar
    19    34    35   ar
    20    35    36    1
    21    27    28    1
    22    28    29    2
    23     6     7   ar
    24     7     8   ar
    25     8     9   ar
    26     9    10    1
    27    10    11    2
    28    11    13    1
    29    13    14   ar
    30    14    15   ar
    31    15    16   ar
    32    16    17   ar
    33    10     2    1
    34    17    13   ar
    35     9     4   ar
    36    28    23    1
    37    35    30   ar
    38     3    12    1
    39    19    22    1
    40    17    18    1
@<TRIPOS>MOLECULE
*****
 36 40 0 0 0
SMALL
GASTEIGER

@<TRIPOS>ATOM
      1 O         143.2808  142.2293  167.0683 O.2     1  UNL1       -0.2698
      2 C         143.3431  141.4519  165.7870 C.2     1  UNL1        0.2496
      3 N         143.9389  141.9276  164.4952 N.am    1  UNL1       -0.2803
      4 C         143.7846  140.8320  163.4823 C.ar    1  UNL1        0.0519
      5 C         144.1841  140.7352  162.0398 C.ar    1  UNL1        0.0293
      6 C         143.8926  139.4855  161.2631 C.ar    1  UNL1        0.0516
      7 C         143.2015  138.3327  161.9289 C.ar    1  UNL1        0.0148
      8 C         142.8020  138.4295  163.3714 C.ar    1  UNL1        0.0026
      9 C         143.0935  139.6792  164.1481 C.ar    1  UNL1        0.0180
     10 C         142.8207  140.0623  165.5725 C.2     1  UNL1        0.0563
     11 C         142.1442  139.2061  166.6017 C.2     1  UNL1        0.0215
     12 H         144.3576  142.8049  164.3394 H       1  UNL1        0.1552
     13 C         141.9395  139.7268  167.9935 C.ar    1  UNL1        0.0568
     14 C         140.6437  140.2143  168.5708 C.ar    1  UNL1        0.0185
     15 C         140.8980  140.6402  169.9863 C.ar    1  UNL1        0.0199
     16 C         142.3510  140.4160  170.2840 C.ar    1  UNL1        0.0724
     17 N         142.9946  139.8515  169.0523 N.ar    1  UNL1       -0.3520
     18 H         143.9431  139.6059  168.9558 H       1  UNL1        0.1660
     19 N         144.2921  139.3887  159.8204 N.am    1  UNL1       -0.2832
     20 C         143.5269  140.1483  158.7777 C.2     1  UNL1        0.2388
     21 O         142.3621  141.0048  159.1775 O.2     1  UNL1       -0.2739
     22 H         145.0565  138.8265  159.5580 H       1  UNL1        0.1549
     23 C         143.9264  140.0515  157.3351 C.3     1  UNL1        0.1793
     24 C         143.4074  138.9284  156.4869 C.2     1  UNL1        0.0891
     25 N         143.8069  138.8317  155.0443 N.2     1  UNL1       -0.2459
     26 C         144.7253  139.8579  154.4500 C.2     1  UNL1        0.1014
     27 C         145.2443  140.9809  155.2982 C.2     1  UNL1        0.0568
     28 C         144.8449  141.0777  156.7407 C.2     1  UNL1        0.1886
     29 O         145.3638  142.2008  157.5889 O.2     1  UNL1       -0.2904
     30 C         146.1628  142.0071  154.7038 C.ar    1  UNL1        0.0318
     31 C         147.6251  141.7081  154.5545 C.ar    1  UNL1        0.0024
     32 C         148.5436  142.7343  153.9601 C.ar    1  UNL1        0.0001
     33 C         147.9998  144.0596  153.5151 C.ar    1  UNL1        0.0023
     34 C         146.5375  144.3586  153.6644 C.ar    1  UNL1        0.0296
     35 C         145.6190  143.3323  154.2587 C.ar    1  UNL1        0.1402
     36 F         144.1567  143.6313  154.4080 F       1  UNL1       -0.2042
@<TRIPOS>BOND
     1     1     2    2
     2     2     3   am
     3     3     4    1
     4     4     5   ar
     5     5     6   ar
     6     6    19    1
     7    19    20   am
     8    20    21    2
     9    20    23    1
    10    23    24    1
    11    24    25    2
    12    25    26    1
    13    26    27    2
    14    27    30    1
    15    30    31   ar
    16    31    32   ar
    17    32    33   ar
    18    33    34   ar
    19    34    35   ar
    20    35    36    1
    21    27    28    1
    22    28    29    2
    23     6     7   ar
    24     7     8   ar
    25     8     9   ar
    26     9    10    1
    27    10    11    2
    28    11    13    1
    29    13    14   ar
    30    14    15   ar
    31    15    16   ar
    32    16    17   ar
    33    10     2    1
    34    17    13   ar
    35     9     4   ar
    36    28    23    1
    37    35    30   ar
    38     3    12    1
    39    19    22    1
    40    17    18    1
@<TRIPOS>MOLECULE
*****
 36 40 0 0 0
SMALL
GASTEIGER

@<TRIPOS>ATOM
      1 O         141.1161  140.0703  167.5294 O.2     1  UNL1       -0.2698
      2 C         140.5958  140.9002  166.3933 C.2     1  UNL1        0.2496
      3 N         140.3929  140.4345  164.9819 N.am    1  UNL1       -0.2803
      4 C         139.8588  141.5879  164.1855 C.ar    1  UNL1        0.0519
      5 C         139.4718  141.7173  162.7421 C.ar    1  UNL1        0.0293
      6 C         138.9576  143.0252  162.2178 C.ar    1  UNL1        0.0516
      7 C         138.8303  144.2038  163.1370 C.ar    1  UNL1        0.0148
      8 C         139.2172  144.0744  164.5804 C.ar    1  UNL1        0.0026
      9 C         139.7314  142.7665  165.1047 C.ar    1  UNL1        0.0180
     10 C         140.1869  142.3414  166.4692 C.2     1  UNL1        0.0563
     11 C         140.2266  143.2058  167.6944 C.2     1  UNL1        0.0215
     12 H         140.5779  139.5306  164.6386 H       1  UNL1        0.1552
     13 C         140.7091  142.6391  168.9968 C.ar    1  UNL1        0.0568
     14 C         142.0464  142.8925  169.6271 C.ar    1  UNL1        0.0185
     15 C         142.1028  142.1296  170.9173 C.ar    1  UNL1        0.0199
     16 C         140.8003  141.4046  171.0845 C.ar    1  UNL1        0.0724
     17 N         139.9389  141.7196  169.8975 N.ar    1  UNL1       -0.3520
     18 H         139.0280  141.3820  169.7377 H       1  UNL1        0.1660
     19 N         138.5707  143.1547  160.7743 N.am    1  UNL1       -0.2832
     20 C         139.6318  143.2132  159.7158 C.2     1  UNL1        0.2388
     21 O         141.0799  143.1423  160.1007 O.2     1  UNL1       -0.2739
     22 H         137.6203  143.2012  160.5217 H       1  UNL1        0.1549
     23 C         139.2449  143.3427  158.2723 C.3     1  UNL1        0.1793
     24 C         138.5067  142.2288  157.5909 C.2     1  UNL1        0.0891
     25 N         138.1198  142.3583  156.1474 N.2     1  UNL1       -0.2459
     26 C         138.4712  143.6016  155.3854 C.2     1  UNL1        0.1014
     27 C         139.2094  144.7154  156.0668 C.2     1  UNL1        0.0568
     28 C         139.5963  144.5860  157.5102 C.2     1  UNL1        0.1886
     29 O         140.3345  145.6999  158.1917 O.2     1  UNL1       -0.2904
     30 C         139.5607  145.9587  155.3048 C.ar    1  UNL1        0.0318
     31 C         138.8945  147.2594  155.6434 C.ar    1  UNL1        0.0024
     32 C         139.2459  148.5027  154.8813 C.ar    1  UNL1        0.0001
     33 C         140.2634  148.4454  153.7808 C.ar    1  UNL1        0.0023
     34 C         140.9297  147.1449  153.4422 C.ar    1  UNL1        0.0296
     35 C         140.5783  145.9015  154.2042 C.ar    1  UNL1        0.1402
     36 F         141.2445  144.6009  153.8657 F       1  UNL1       -0.2042
@<TRIPOS>BOND
     1     1     2    2
     2     2     3   am
     3     3     4    1
     4     4     5   ar
     5     5     6   ar
     6     6    19    1
     7    19    20   am
     8    20    21    2
     9    20    23    1
    10    23    24    1
    11    24    25    2
    12    25    26    1
    13    26    27    2
    14    27    30    1
    15    30    31   ar
    16    31    32   ar
    17    32    33   ar
    18    33    34   ar
    19    34    35   ar
    20    35    36    1
    21    27    28    1
    22    28    29    2
    23     6     7   ar
    24     7     8   ar
    25     8     9   ar
    26     9    10    1
    27    10    11    2
    28    11    13    1
    29    13    14   ar
    30    14    15   ar
    31    15    16   ar
    32    16    17   ar
    33    10     2    1
    34    17    13   ar
    35     9     4   ar
    36    28    23    1
    37    35    30   ar
    38     3    12    1
    39    19    22    1
    40    17    18    1
@<TRIPOS>MOLECULE
*****
 36 40 0 0 0
SMALL
GASTEIGER

@<TRIPOS>ATOM
      1 O         140.0292  140.0355  167.7042 O.2     1  UNL1       -0.2698
      2 C         140.9395  140.2506  166.5316 C.2     1  UNL1        0.2496
      3 N         140.9179  139.4791  165.2454 N.am    1  UNL1       -0.2803
      4 C         141.9964  140.0266  164.3582 C.ar    1  UNL1        0.0519
      5 C         142.4407  139.6578  162.9738 C.ar    1  UNL1        0.0293
      6 C         143.5732  140.3991  162.3273 C.ar    1  UNL1        0.0516
      7 C         144.2613  141.5090  163.0651 C.ar    1  UNL1        0.0148
      8 C         143.8170  141.8778  164.4495 C.ar    1  UNL1        0.0026
      9 C         142.6846  141.1365  165.0960 C.ar    1  UNL1        0.0180
     10 C         142.0314  141.2750  166.4392 C.2     1  UNL1        0.0563
     11 C         142.4045  142.2642  167.5033 C.2     1  UNL1        0.0215
     12 H         140.3038  138.7426  165.0227 H       1  UNL1        0.1552
     13 C         141.6571  142.2846  168.8038 C.ar    1  UNL1        0.0568
     14 C         140.5179  143.1963  169.1517 C.ar    1  UNL1        0.0185
     15 C         140.0744  142.8721  170.5474 C.ar    1  UNL1        0.0199
     16 C         140.9395  141.7601  171.0622 C.ar    1  UNL1        0.0724
     17 N         141.9177  141.3970  169.9845 N.ar    1  UNL1       -0.3520
     18 H         142.6093  140.6987  170.0421 H       1  UNL1        0.1660
     19 N         144.0176  140.0303  160.9428 N.am    1  UNL1       -0.2832
     20 C         143.3336  140.6312  159.7507 C.2     1  UNL1        0.2388
     21 O         142.2053  141.6008  159.9430 O.2     1  UNL1       -0.2739
     22 H         144.7581  139.3940  160.8166 H       1  UNL1        0.1549
     23 C         143.7779  140.2625  158.3663 C.3     1  UNL1        0.1793
     24 C         143.3224  138.9726  157.7510 C.2     1  UNL1        0.0891
     25 N         143.7668  138.6039  156.3665 N.2     1  UNL1       -0.2459
     26 C         144.6666  139.5252  155.5974 C.2     1  UNL1        0.1014
     27 C         145.1221  140.8151  156.2127 C.2     1  UNL1        0.0568
     28 C         144.6778  141.1838  157.5971 C.2     1  UNL1        0.1886
     29 O         145.1333  142.4737  158.2124 O.2     1  UNL1       -0.2904
     30 C         146.0220  141.7364  155.4436 C.ar    1  UNL1        0.0318
     31 C         147.5012  141.4890  155.4152 C.ar    1  UNL1        0.0024
     32 C         148.4010  142.4103  154.6461 C.ar    1  UNL1        0.0001
     33 C         147.8217  143.5789  153.9054 C.ar    1  UNL1        0.0023
     34 C         146.3425  143.8263  153.9338 C.ar    1  UNL1        0.0296
     35 C         145.4426  142.9050  154.7029 C.ar    1  UNL1        0.1402
     36 F         143.9635  143.1524  154.7313 F       1  UNL1       -0.2042
@<TRIPOS>BOND
     1     1     2    2
     2     2     3   am
     3     3     4    1
     4     4     5   ar
     5     5     6   ar
     6     6    19    1
     7    19    20   am
     8    20    21    2
     9    20    23    1
    10    23    24    1
    11    24    25    2
    12    25    26    1
    13    26    27    2
    14    27    30    1
    15    30    31   ar
    16    31    32   ar
    17    32    33   ar
    18    33    34   ar
    19    34    35   ar
    20    35    36    1
    21    27    28    1
    22    28    29    2
    23     6     7   ar
    24     7     8   ar
    25     8     9   ar
    26     9    10    1
    27    10    11    2
    28    11    13    1
    29    13    14   ar
    30    14    15   ar
    31    15    16   ar
    32    16    17   ar
    33    10     2    1
    34    17    13   ar
    35     9     4   ar
    36    28    23    1
    37    35    30   ar
    38     3    12    1
    39    19    22    1
    40    17    18    1
