@<TRIPOS>MOLECULE
*****
 31 35 0 0 0
SMALL
GASTEIGER

@<TRIPOS>ATOM
      1 C         141.3220  139.1626  163.4972 C.ar    1  UNL1        0.0878
      2 C         140.5979  138.3650  162.4533 C.ar    1  UNL1        0.0091
      3 C         139.2527  137.7759  162.7588 C.ar    1  UNL1        0.0194
      4 C         138.6315  137.9843  164.1081 C.ar    1  UNL1        0.0844
      5 N         139.3555  138.7818  165.1520 N.ar    1  UNL1       -0.2576
      6 C         138.7344  138.9903  166.5013 C.ar    1  UNL1        0.2672
      7 O         137.3892  138.4011  166.8068 O.2     1  UNL1       -0.2665
      8 C         139.4584  139.7878  167.5452 C.ar    1  UNL1        0.0742
      9 C         138.8373  139.9963  168.8945 C.ar    1  UNL1        0.0063
     10 C         139.5613  140.7938  169.9384 C.ar    1  UNL1        0.0003
     11 C         140.9065  141.3830  169.6330 C.ar    1  UNL1        0.0015
     12 C         141.6306  142.1805  170.6768 C.ar    1  UNL1        0.0000
     13 C         142.9757  142.7696  170.3714 C.ar    1  UNL1        0.0000
     14 C         143.5969  142.5612  169.0220 C.ar    1  UNL1        0.0000
     15 C         142.8729  141.7637  167.9782 C.ar    1  UNL1        0.0015
     16 C         141.5277  141.1745  168.2836 C.ar    1  UNL1        0.0179
     17 C         140.8036  140.3770  167.2397 C.ar    1  UNL1        0.0875
     18 N         141.4248  140.1685  165.8904 N.ar    1  UNL1       -0.2276
     19 C         140.7008  139.3710  164.8465 C.ar    1  UNL1        0.1543
     20 O         142.9171  140.4020  161.8633 O.2     1  UNL1       -0.2700
     21 C         142.6672  139.7517  163.1917 C.2     1  UNL1        0.2488
     22 N         143.7626  139.6905  164.2147 N.am    1  UNL1       -0.2994
     23 H         143.5986  139.2637  165.0866 H       1  UNL1        0.1498
     24 C         145.1078  140.2797  163.9092 C.3     1  UNL1        0.1070
     25 C         145.3911  141.7147  164.2416 C.3     1  UNL1        0.0937
     26 N         144.4271  142.7856  163.8248 N.3     1  UNL1       -0.2689
     27 C         144.4225  143.5039  162.5080 C.3     1  UNL1        0.0751
     28 C         143.2910  144.4885  162.5210 C.3     1  UNL1        0.0540
     29 C         142.5962  144.3787  163.8459 C.3     1  UNL1        0.1782
     30 F         141.4079  145.1805  164.2875 F       1  UNL1       -0.2357
     31 C         143.2984  143.3262  164.6517 C.3     1  UNL1        0.1078
@<TRIPOS>BOND
     1    20    21    2
     2    21    22   am
     3    22    24    1
     4    24    25    1
     5    25    26    1
     6    26    27    1
     7    27    28    1
     8    28    29    1
     9    29    30    1
    10    29    31    1
    11    21     1    1
    12     1     2   ar
    13     2     3   ar
    14     3     4   ar
    15     4     5   ar
    16     5     6   ar
    17     6     7    2
    18     6     8   ar
    19     8     9   ar
    20     9    10   ar
    21    10    11   ar
    22    11    12   ar
    23    12    13   ar
    24    13    14   ar
    25    14    15   ar
    26    15    16   ar
    27    16    17   ar
    28    17    18   ar
    29    18    19   ar
    30    31    26    1
    31    19     1   ar
    32    19     5   ar
    33    17     8   ar
    34    16    11   ar
    35    22    23    1
@<TRIPOS>MOLECULE
*****
 31 35 0 0 0
SMALL
GASTEIGER

@<TRIPOS>ATOM
      1 C         140.3414  142.7082  161.1335 C.ar    1  UNL1        0.0878
      2 C         140.0644  142.5387  159.6691 C.ar    1  UNL1        0.0091
      3 C         139.2597  141.3676  159.1886 C.ar    1  UNL1        0.0194
      4 C         138.7319  140.3660  160.1725 C.ar    1  UNL1        0.0844
      5 N         139.0088  140.5354  161.6369 N.ar    1  UNL1       -0.2576
      6 C         138.4810  139.5337  162.6208 C.ar    1  UNL1        0.2672
      7 O         137.6762  138.3627  162.1403 O.2     1  UNL1       -0.2665
      8 C         138.7580  139.7032  164.0853 C.ar    1  UNL1        0.0742
      9 C         138.2302  138.7016  165.0692 C.ar    1  UNL1        0.0063
     10 C         138.5071  138.8710  166.5336 C.ar    1  UNL1        0.0003
     11 C         139.3119  140.0421  167.0142 C.ar    1  UNL1        0.0015
     12 C         139.5889  140.2115  168.4786 C.ar    1  UNL1        0.0000
     13 C         140.3937  141.3825  168.9591 C.ar    1  UNL1        0.0000
     14 C         140.9215  142.3842  167.9752 C.ar    1  UNL1        0.0000
     15 C         140.6445  142.2148  166.5108 C.ar    1  UNL1        0.0015
     16 C         139.8398  141.0437  166.0303 C.ar    1  UNL1        0.0179
     17 C         139.5628  140.8743  164.5658 C.ar    1  UNL1        0.0875
     18 N         140.0906  141.8759  163.5819 N.ar    1  UNL1       -0.2276
     19 C         139.8136  141.7065  162.1175 C.ar    1  UNL1        0.1543
     20 O         141.8605  144.7541  160.6268 O.2     1  UNL1       -0.2700
     21 C         141.1462  143.8792  161.6140 C.2     1  UNL1        0.2488
     22 N         141.2368  144.1755  163.0817 N.am    1  UNL1       -0.2994
     23 H         140.7680  143.6013  163.7296 H       1  UNL1        0.1498
     24 C         142.0416  145.3466  163.5622 C.3     1  UNL1        0.1070
     25 C         143.4936  145.1724  163.8961 C.3     1  UNL1        0.0937
     26 N         144.1758  143.8660  163.6172 N.3     1  UNL1       -0.2689
     27 C         144.6667  143.3954  162.2802 C.3     1  UNL1        0.0751
     28 C         145.2812  142.0394  162.4630 C.3     1  UNL1        0.0540
     29 C         145.1701  141.6718  163.9131 C.3     1  UNL1        0.1782
     30 F         145.6567  140.3989  164.5398 F       1  UNL1       -0.2357
     31 C         144.4869  142.8008  164.6264 C.3     1  UNL1        0.1078
@<TRIPOS>BOND
     1    20    21    2
     2    21    22   am
     3    22    24    1
     4    24    25    1
     5    25    26    1
     6    26    27    1
     7    27    28    1
     8    28    29    1
     9    29    30    1
    10    29    31    1
    11    21     1    1
    12     1     2   ar
    13     2     3   ar
    14     3     4   ar
    15     4     5   ar
    16     5     6   ar
    17     6     7    2
    18     6     8   ar
    19     8     9   ar
    20     9    10   ar
    21    10    11   ar
    22    11    12   ar
    23    12    13   ar
    24    13    14   ar
    25    14    15   ar
    26    15    16   ar
    27    16    17   ar
    28    17    18   ar
    29    18    19   ar
    30    31    26    1
    31    19     1   ar
    32    19     5   ar
    33    17     8   ar
    34    16    11   ar
    35    22    23    1
@<TRIPOS>MOLECULE
*****
 31 35 0 0 0
SMALL
GASTEIGER

@<TRIPOS>ATOM
      1 C         141.6280  141.7163  168.2620 C.ar    1  UNL1        0.0878
      2 C         141.1575  142.0277  169.6518 C.ar    1  UNL1        0.0091
      3 C         139.9166  141.3769  170.1870 C.ar    1  UNL1        0.0194
      4 C         139.1461  140.4146  169.3324 C.ar    1  UNL1        0.0844
      5 N         139.6166  140.1032  167.9426 N.ar    1  UNL1       -0.2576
      6 C         138.8461  139.1409  167.0879 C.ar    1  UNL1        0.2672
      7 O         137.6052  138.4901  167.6231 O.2     1  UNL1       -0.2665
      8 C         139.3166  138.8295  165.6980 C.ar    1  UNL1        0.0742
      9 C         138.5462  137.8672  164.8434 C.ar    1  UNL1        0.0063
     10 C         139.0166  137.5558  163.4536 C.ar    1  UNL1        0.0003
     11 C         140.2576  138.2066  162.9183 C.ar    1  UNL1        0.0015
     12 C         140.7281  137.8952  161.5285 C.ar    1  UNL1        0.0000
     13 C         141.9690  138.5460  160.9934 C.ar    1  UNL1        0.0000
     14 C         142.7395  139.5083  161.8480 C.ar    1  UNL1        0.0000
     15 C         142.2690  139.8197  163.2378 C.ar    1  UNL1        0.0015
     16 C         141.0281  139.1689  163.7730 C.ar    1  UNL1        0.0179
     17 C         140.5576  139.4803  165.1629 C.ar    1  UNL1        0.0875
     18 N         141.3280  140.4426  166.0175 N.ar    1  UNL1       -0.2276
     19 C         140.8576  140.7540  167.4073 C.ar    1  UNL1        0.1543
     20 O         143.9751  142.7560  168.6624 O.2     1  UNL1       -0.2700
     21 C         142.8690  142.3671  167.7268 C.2     1  UNL1        0.2488
     22 N         143.0039  142.6291  166.2560 N.am    1  UNL1       -0.2994
     23 H         142.2779  142.3739  165.6420 H       1  UNL1        0.1498
     24 C         144.2449  143.2800  165.7209 C.3     1  UNL1        0.1070
     25 C         144.1671  144.1603  164.5089 C.3     1  UNL1        0.0937
     26 N         142.8989  144.2272  163.7107 N.3     1  UNL1       -0.2689
     27 C         142.5371  143.3428  162.5544 C.3     1  UNL1        0.0751
     28 C         141.1844  143.7593  162.0578 C.3     1  UNL1        0.0540
     29 C         140.7101  144.9012  162.9071 C.3     1  UNL1        0.1782
     30 F         139.4053  145.6265  162.7606 F       1  UNL1       -0.2357
     31 C         141.7698  145.1903  163.9286 C.3     1  UNL1        0.1078
@<TRIPOS>BOND
     1    20    21    2
     2    21    22   am
     3    22    24    1
     4    24    25    1
     5    25    26    1
     6    26    27    1
     7    27    28    1
     8    28    29    1
     9    29    30    1
    10    29    31    1
    11    21     1    1
    12     1     2   ar
    13     2     3   ar
    14     3     4   ar
    15     4     5   ar
    16     5     6   ar
    17     6     7    2
    18     6     8   ar
    19     8     9   ar
    20     9    10   ar
    21    10    11   ar
    22    11    12   ar
    23    12    13   ar
    24    13    14   ar
    25    14    15   ar
    26    15    16   ar
    27    16    17   ar
    28    17    18   ar
    29    18    19   ar
    30    31    26    1
    31    19     1   ar
    32    19     5   ar
    33    17     8   ar
    34    16    11   ar
    35    22    23    1
@<TRIPOS>MOLECULE
*****
 31 35 0 0 0
SMALL
GASTEIGER

@<TRIPOS>ATOM
      1 C         141.7165  141.7701  168.5289 C.ar    1  UNL1        0.0878
      2 C         141.2661  142.1225  169.9156 C.ar    1  UNL1        0.0091
      3 C         140.0123  141.5170  170.4735 C.ar    1  UNL1        0.0194
      4 C         139.2088  140.5591  169.6447 C.ar    1  UNL1        0.0844
      5 N         139.6592  140.2068  168.2580 N.ar    1  UNL1       -0.2576
      6 C         138.8557  139.2489  167.4292 C.ar    1  UNL1        0.2672
      7 O         137.6019  138.6434  167.9870 O.2     1  UNL1       -0.2665
      8 C         139.3062  138.8965  166.0424 C.ar    1  UNL1        0.0742
      9 C         138.5027  137.9386  165.2136 C.ar    1  UNL1        0.0063
     10 C         138.9531  137.5863  163.8269 C.ar    1  UNL1        0.0003
     11 C         140.2070  138.1918  163.2689 C.ar    1  UNL1        0.0015
     12 C         140.6573  137.8394  161.8823 C.ar    1  UNL1        0.0000
     13 C         141.9111  138.4450  161.3244 C.ar    1  UNL1        0.0000
     14 C         142.7146  139.4028  162.1532 C.ar    1  UNL1        0.0000
     15 C         142.2642  139.7552  163.5399 C.ar    1  UNL1        0.0015
     16 C         141.0104  139.1497  164.0978 C.ar    1  UNL1        0.0179
     17 C         140.5600  139.5020  165.4845 C.ar    1  UNL1        0.0875
     18 N         141.3634  140.4599  166.3134 N.ar    1  UNL1       -0.2276
     19 C         140.9131  140.8123  167.7001 C.ar    1  UNL1        0.1543
     20 O         144.1026  142.7336  168.8876 O.2     1  UNL1       -0.2700
     21 C         142.9703  142.3757  167.9710 C.2     1  UNL1        0.2488
     22 N         143.0920  142.6233  166.4966 N.am    1  UNL1       -0.2994
     23 H         142.3489  142.3884  165.8950 H       1  UNL1        0.1498
     24 C         144.3459  143.2288  165.9387 C.3     1  UNL1        0.1070
     25 C         144.2796  144.1020  164.7209 C.3     1  UNL1        0.0937
     26 N         144.3322  143.4875  163.3536 N.3     1  UNL1       -0.2689
     27 C         145.1604  142.3037  162.9503 C.3     1  UNL1        0.0751
     28 C         144.9060  142.0334  161.4970 C.3     1  UNL1        0.0540
     29 C         143.9205  143.0503  161.0021 C.3     1  UNL1        0.1782
     30 F         143.3839  143.1508  159.6050 F       1  UNL1       -0.2357
     31 C         143.5659  143.9489  162.1495 C.3     1  UNL1        0.1078
@<TRIPOS>BOND
     1    20    21    2
     2    21    22   am
     3    22    24    1
     4    24    25    1
     5    25    26    1
     6    26    27    1
     7    27    28    1
     8    28    29    1
     9    29    30    1
    10    29    31    1
    11    21     1    1
    12     1     2   ar
    13     2     3   ar
    14     3     4   ar
    15     4     5   ar
    16     5     6   ar
    17     6     7    2
    18     6     8   ar
    19     8     9   ar
    20     9    10   ar
    21    10    11   ar
    22    11    12   ar
    23    12    13   ar
    24    13    14   ar
    25    14    15   ar
    26    15    16   ar
    27    16    17   ar
    28    17    18   ar
    29    18    19   ar
    30    31    26    1
    31    19     1   ar
    32    19     5   ar
    33    17     8   ar
    34    16    11   ar
    35    22    23    1
@<TRIPOS>MOLECULE
*****
 31 35 0 0 0
SMALL
GASTEIGER

@<TRIPOS>ATOM
      1 C         142.6822  143.1812  159.9915 C.ar    1  UNL1        0.0878
      2 C         142.5558  143.8028  158.6322 C.ar    1  UNL1        0.0091
      3 C         141.5213  144.8602  158.3843 C.ar    1  UNL1        0.0194
      4 C         140.6131  145.2961  159.4956 C.ar    1  UNL1        0.0844
      5 N         140.7394  144.6745  160.8549 N.ar    1  UNL1       -0.2576
      6 C         139.8312  145.1104  161.9663 C.ar    1  UNL1        0.2672
      7 O         138.7966  146.1678  161.7184 O.2     1  UNL1       -0.2665
      8 C         139.9576  144.4888  163.3256 C.ar    1  UNL1        0.0742
      9 C         139.0493  144.9247  164.4370 C.ar    1  UNL1        0.0063
     10 C         139.1757  144.3031  165.7963 C.ar    1  UNL1        0.0003
     11 C         140.2103  143.2456  166.0442 C.ar    1  UNL1        0.0015
     12 C         140.3366  142.6241  167.4035 C.ar    1  UNL1        0.0000
     13 C         141.3712  141.5667  167.6514 C.ar    1  UNL1        0.0000
     14 C         142.2794  141.1308  166.5400 C.ar    1  UNL1        0.0000
     15 C         142.1531  141.7524  165.1808 C.ar    1  UNL1        0.0015
     16 C         141.1185  142.8098  164.9329 C.ar    1  UNL1        0.0179
     17 C         140.9921  143.4314  163.5735 C.ar    1  UNL1        0.0875
     18 N         141.9004  142.9955  162.4622 N.ar    1  UNL1       -0.2276
     19 C         141.7740  143.6170  161.1029 C.ar    1  UNL1        0.1543
     20 O         145.1672  142.4229  160.0006 O.2     1  UNL1       -0.2700
     21 C         143.7168  142.1238  160.2394 C.2     1  UNL1        0.2488
     22 N         143.3011  140.7672  160.7261 N.am    1  UNL1       -0.2994
     23 H         142.3492  140.5708  160.8828 H       1  UNL1        0.1498
     24 C         144.3357  139.7097  160.9740 C.3     1  UNL1        0.1070
     25 C         143.9141  138.3277  161.3768 C.3     1  UNL1        0.0937
     26 N         142.7440  138.1386  162.2960 N.3     1  UNL1       -0.2689
     27 C         142.7507  138.3332  163.7833 C.3     1  UNL1        0.0751
     28 C         141.3725  138.0366  164.2959 C.3     1  UNL1        0.0540
     29 C         140.5141  137.6586  163.1253 C.3     1  UNL1        0.1782
     30 F         139.0628  137.2835  163.1809 F       1  UNL1       -0.2357
     31 C         141.3617  137.7217  161.8893 C.3     1  UNL1        0.1078
@<TRIPOS>BOND
     1    20    21    2
     2    21    22   am
     3    22    24    1
     4    24    25    1
     5    25    26    1
     6    26    27    1
     7    27    28    1
     8    28    29    1
     9    29    30    1
    10    29    31    1
    11    21     1    1
    12     1     2   ar
    13     2     3   ar
    14     3     4   ar
    15     4     5   ar
    16     5     6   ar
    17     6     7    2
    18     6     8   ar
    19     8     9   ar
    20     9    10   ar
    21    10    11   ar
    22    11    12   ar
    23    12    13   ar
    24    13    14   ar
    25    14    15   ar
    26    15    16   ar
    27    16    17   ar
    28    17    18   ar
    29    18    19   ar
    30    31    26    1
    31    19     1   ar
    32    19     5   ar
    33    17     8   ar
    34    16    11   ar
    35    22    23    1
@<TRIPOS>MOLECULE
*****
 31 35 0 0 0
SMALL
GASTEIGER

@<TRIPOS>ATOM
      1 C         141.5384  143.7382  161.1280 C.ar    1  UNL1        0.0878
      2 C         140.9252  144.8957  160.3971 C.ar    1  UNL1        0.0091
      3 C         139.9840  145.8199  161.1112 C.ar    1  UNL1        0.0194
      4 C         139.6559  145.5866  162.5562 C.ar    1  UNL1        0.0844
      5 N         140.2691  144.4291  163.2871 N.ar    1  UNL1       -0.2576
      6 C         139.9411  144.1959  164.7321 C.ar    1  UNL1        0.2672
      7 O         138.9998  145.1201  165.4461 O.2     1  UNL1       -0.2665
      8 C         140.5543  143.0384  165.4630 C.ar    1  UNL1        0.0742
      9 C         140.2263  142.8051  166.9080 C.ar    1  UNL1        0.0063
     10 C         140.8394  141.6476  167.6389 C.ar    1  UNL1        0.0003
     11 C         141.7807  140.7234  166.9248 C.ar    1  UNL1        0.0015
     12 C         142.3939  139.5659  167.6557 C.ar    1  UNL1        0.0000
     13 C         143.3351  138.6418  166.9416 C.ar    1  UNL1        0.0000
     14 C         143.6632  138.8750  165.4967 C.ar    1  UNL1        0.0000
     15 C         143.0500  140.0325  164.7657 C.ar    1  UNL1        0.0015
     16 C         142.1088  140.9566  165.4798 C.ar    1  UNL1        0.0179
     17 C         141.4955  142.1142  164.7489 C.ar    1  UNL1        0.0875
     18 N         141.8236  142.3474  163.3039 N.ar    1  UNL1       -0.2276
     19 C         141.2104  143.5049  162.5730 C.ar    1  UNL1        0.1543
     20 O         143.8568  143.2823  160.0477 O.2     1  UNL1       -0.2700
     21 C         142.4796  142.8140  160.4140 C.2     1  UNL1        0.2488
     22 N         142.0437  141.4215  160.0662 N.am    1  UNL1       -0.2994
     23 H         141.1399  141.1141  160.3065 H       1  UNL1        0.1498
     24 C         142.9850  140.4973  159.3520 C.3     1  UNL1        0.1070
     25 C         142.9656  139.0279  159.6527 C.3     1  UNL1        0.0937
     26 N         142.0752  138.4958  160.7362 N.3     1  UNL1       -0.2689
     27 C         140.5752  138.5101  160.7313 C.3     1  UNL1        0.0751
     28 C         140.1014  137.8791  162.0069 C.3     1  UNL1        0.0540
     29 C         141.3086  137.4747  162.8002 C.3     1  UNL1        0.1782
     30 F         141.2978  136.8065  164.1432 F       1  UNL1       -0.2357
     31 C         142.5284  137.8558  162.0149 C.3     1  UNL1        0.1078
@<TRIPOS>BOND
     1    20    21    2
     2    21    22   am
     3    22    24    1
     4    24    25    1
     5    25    26    1
     6    26    27    1
     7    27    28    1
     8    28    29    1
     9    29    30    1
    10    29    31    1
    11    21     1    1
    12     1     2   ar
    13     2     3   ar
    14     3     4   ar
    15     4     5   ar
    16     5     6   ar
    17     6     7    2
    18     6     8   ar
    19     8     9   ar
    20     9    10   ar
    21    10    11   ar
    22    11    12   ar
    23    12    13   ar
    24    13    14   ar
    25    14    15   ar
    26    15    16   ar
    27    16    17   ar
    28    17    18   ar
    29    18    19   ar
    30    31    26    1
    31    19     1   ar
    32    19     5   ar
    33    17     8   ar
    34    16    11   ar
    35    22    23    1
@<TRIPOS>MOLECULE
*****
 31 35 0 0 0
SMALL
GASTEIGER

@<TRIPOS>ATOM
      1 C         142.5546  143.3816  159.0202 C.ar    1  UNL1        0.0878
      2 C         142.5740  144.1940  157.7593 C.ar    1  UNL1        0.0091
      3 C         141.7512  145.4443  157.6600 C.ar    1  UNL1        0.0194
      4 C         140.9090  145.8821  158.8215 C.ar    1  UNL1        0.0844
      5 N         140.8896  145.0697  160.0823 N.ar    1  UNL1       -0.2576
      6 C         140.0474  145.5076  161.2437 C.ar    1  UNL1        0.2672
      7 O         139.2247  146.7578  161.1444 O.2     1  UNL1       -0.2665
      8 C         140.0280  144.6951  162.5046 C.ar    1  UNL1        0.0742
      9 C         139.1859  145.1329  163.6660 C.ar    1  UNL1        0.0063
     10 C         139.1664  144.3206  164.9268 C.ar    1  UNL1        0.0003
     11 C         139.9892  143.0702  165.0262 C.ar    1  UNL1        0.0015
     12 C         139.9698  142.2579  166.2869 C.ar    1  UNL1        0.0000
     13 C         140.7926  141.0076  166.3862 C.ar    1  UNL1        0.0000
     14 C         141.6348  140.5698  165.2248 C.ar    1  UNL1        0.0000
     15 C         141.6542  141.3822  163.9640 C.ar    1  UNL1        0.0015
     16 C         140.8314  142.6324  163.8647 C.ar    1  UNL1        0.0179
     17 C         140.8508  143.4449  162.6039 C.ar    1  UNL1        0.0875
     18 N         141.6930  143.0070  161.4424 N.ar    1  UNL1       -0.2276
     19 C         141.7124  143.8194  160.1816 C.ar    1  UNL1        0.1543
     20 O         144.8533  142.1818  158.8560 O.2     1  UNL1       -0.2700
     21 C         143.3774  142.1313  159.1195 C.2     1  UNL1        0.2488
     22 N         142.7244  140.8306  159.4822 N.am    1  UNL1       -0.2994
     23 H         141.7557  140.7974  159.6552 H       1  UNL1        0.1498
     24 C         143.5472  139.5803  159.5815 C.3     1  UNL1        0.1070
     25 C         143.5792  138.8034  160.8643 C.3     1  UNL1        0.0937
     26 N         144.1911  139.4089  162.0927 N.3     1  UNL1       -0.2689
     27 C         144.2923  138.7573  163.4400 C.3     1  UNL1        0.0751
     28 C         144.9729  139.7179  164.3695 C.3     1  UNL1        0.0540
     29 C         145.2922  140.9632  163.5966 C.3     1  UNL1        0.1782
     30 F         145.9749  142.1851  164.1362 F       1  UNL1       -0.2357
     31 C         144.8090  140.7722  162.1895 C.3     1  UNL1        0.1078
@<TRIPOS>BOND
     1    20    21    2
     2    21    22   am
     3    22    24    1
     4    24    25    1
     5    25    26    1
     6    26    27    1
     7    27    28    1
     8    28    29    1
     9    29    30    1
    10    29    31    1
    11    21     1    1
    12     1     2   ar
    13     2     3   ar
    14     3     4   ar
    15     4     5   ar
    16     5     6   ar
    17     6     7    2
    18     6     8   ar
    19     8     9   ar
    20     9    10   ar
    21    10    11   ar
    22    11    12   ar
    23    12    13   ar
    24    13    14   ar
    25    14    15   ar
    26    15    16   ar
    27    16    17   ar
    28    17    18   ar
    29    18    19   ar
    30    31    26    1
    31    19     1   ar
    32    19     5   ar
    33    17     8   ar
    34    16    11   ar
    35    22    23    1
@<TRIPOS>MOLECULE
*****
 31 35 0 0 0
SMALL
GASTEIGER

@<TRIPOS>ATOM
      1 C         142.7292  140.9568  162.2228 C.ar    1  UNL1        0.0878
      2 C         143.7805  141.4790  161.2889 C.ar    1  UNL1        0.0091
      3 C         144.8448  142.4043  161.7998 C.ar    1  UNL1        0.0194
      4 C         144.8579  142.8074  163.2446 C.ar    1  UNL1        0.0844
      5 N         143.8067  142.2852  164.1784 N.ar    1  UNL1       -0.2576
      6 C         143.8198  142.6883  165.6232 C.ar    1  UNL1        0.2672
      7 O         144.8841  143.6136  166.1341 O.2     1  UNL1       -0.2665
      8 C         142.7684  142.1661  166.5571 C.ar    1  UNL1        0.0742
      9 C         142.7815  142.5692  168.0019 C.ar    1  UNL1        0.0063
     10 C         141.7303  142.0470  168.9358 C.ar    1  UNL1        0.0003
     11 C         140.6659  141.1217  168.4249 C.ar    1  UNL1        0.0015
     12 C         139.6147  140.5995  169.3588 C.ar    1  UNL1        0.0000
     13 C         138.5503  139.6742  168.8479 C.ar    1  UNL1        0.0000
     14 C         138.5373  139.2711  167.4031 C.ar    1  UNL1        0.0000
     15 C         139.5885  139.7933  166.4692 C.ar    1  UNL1        0.0015
     16 C         140.6528  140.7186  166.9801 C.ar    1  UNL1        0.0179
     17 C         141.7041  141.2408  166.0462 C.ar    1  UNL1        0.0875
     18 N         141.6910  140.8377  164.6015 N.ar    1  UNL1       -0.2276
     19 C         142.7423  141.3599  163.6676 C.ar    1  UNL1        0.1543
     20 O         141.2117  140.1247  160.2850 O.2     1  UNL1       -0.2700
     21 C         141.6649  140.0315  161.7119 C.2     1  UNL1        0.2488
     22 N         141.0536  139.0131  162.6279 N.am    1  UNL1       -0.2994
     23 H         141.3509  138.9519  163.5644 H       1  UNL1        0.1498
     24 C         139.9892  138.0878  162.1170 C.3     1  UNL1        0.1070
     25 C         138.5639  138.5500  162.0471 C.3     1  UNL1        0.0937
     26 N         138.2215  139.9757  162.3637 N.3     1  UNL1       -0.2689
     27 C         138.1241  141.0995  161.3750 C.3     1  UNL1        0.0751
     28 C         137.7587  142.3462  162.1248 C.3     1  UNL1        0.0540
     29 C         137.6302  141.9928  163.5769 C.3     1  UNL1        0.1782
     30 F         137.2776  142.9385  164.6866 F       1  UNL1       -0.2357
     31 C         137.9162  140.5278  163.7245 C.3     1  UNL1        0.1078
@<TRIPOS>BOND
     1    20    21    2
     2    21    22   am
     3    22    24    1
     4    24    25    1
     5    25    26    1
     6    26    27    1
     7    27    28    1
     8    28    29    1
     9    29    30    1
    10    29    31    1
    11    21     1    1
    12     1     2   ar
    13     2     3   ar
    14     3     4   ar
    15     4     5   ar
    16     5     6   ar
    17     6     7    2
    18     6     8   ar
    19     8     9   ar
    20     9    10   ar
    21    10    11   ar
    22    11    12   ar
    23    12    13   ar
    24    13    14   ar
    25    14    15   ar
    26    15    16   ar
    27    16    17   ar
    28    17    18   ar
    29    18    19   ar
    30    31    26    1
    31    19     1   ar
    32    19     5   ar
    33    17     8   ar
    34    16    11   ar
    35    22    23    1
@<TRIPOS>MOLECULE
*****
 31 35 0 0 0
SMALL
GASTEIGER

@<TRIPOS>ATOM
      1 C         141.6044  139.1378  163.3934 C.ar    1  UNL1        0.0878
      2 C         140.9689  138.3401  162.2934 C.ar    1  UNL1        0.0091
      3 C         139.6129  137.7315  162.4954 C.ar    1  UNL1        0.0194
      4 C         138.8923  137.9205  163.7974 C.ar    1  UNL1        0.0844
      5 N         139.5278  138.7182  164.8973 N.ar    1  UNL1       -0.2576
      6 C         138.8072  138.9072  166.1992 C.ar    1  UNL1        0.2672
      7 O         137.4512  138.2986  166.4012 O.2     1  UNL1       -0.2665
      8 C         139.4427  139.7050  167.2992 C.ar    1  UNL1        0.0742
      9 C         138.7221  139.8940  168.6012 C.ar    1  UNL1        0.0063
     10 C         139.3575  140.6917  169.7011 C.ar    1  UNL1        0.0003
     11 C         140.7136  141.3004  169.4991 C.ar    1  UNL1        0.0015
     12 C         141.3490  142.0980  170.5991 C.ar    1  UNL1        0.0000
     13 C         142.7050  142.7066  170.3971 C.ar    1  UNL1        0.0000
     14 C         143.4255  142.5176  169.0952 C.ar    1  UNL1        0.0000
     15 C         142.7901  141.7199  167.9952 C.ar    1  UNL1        0.0015
     16 C         141.4341  141.1113  168.1972 C.ar    1  UNL1        0.0179
     17 C         140.7987  140.3136  167.0972 C.ar    1  UNL1        0.0875
     18 N         141.5192  140.1245  165.7953 N.ar    1  UNL1       -0.2276
     19 C         140.8838  139.3269  164.6953 C.ar    1  UNL1        0.1543
     20 O         144.1005  138.8964  162.7143 O.2     1  UNL1       -0.2700
     21 C         142.9604  139.7464  163.1914 C.2     1  UNL1        0.2488
     22 N         143.1763  141.2051  163.4665 N.am    1  UNL1       -0.2994
     23 H         142.4280  141.7630  163.7796 H       1  UNL1        0.1498
     24 C         144.5324  141.8137  163.2645 C.3     1  UNL1        0.1070
     25 C         144.8824  142.4459  161.9500 C.3     1  UNL1        0.0937
     26 N         143.9113  142.3893  160.8083 N.3     1  UNL1       -0.2689
     27 C         143.9253  141.3925  159.6874 C.3     1  UNL1        0.0751
     28 C         142.7783  141.7066  158.7733 C.3     1  UNL1        0.0540
     29 C         142.0553  142.8976  159.3293 C.3     1  UNL1        0.1782
     30 F         140.8446  143.5518  158.7323 F       1  UNL1       -0.2357
     31 C         142.7555  143.3195  160.5869 C.3     1  UNL1        0.1078
@<TRIPOS>BOND
     1    20    21    2
     2    21    22   am
     3    22    24    1
     4    24    25    1
     5    25    26    1
     6    26    27    1
     7    27    28    1
     8    28    29    1
     9    29    30    1
    10    29    31    1
    11    21     1    1
    12     1     2   ar
    13     2     3   ar
    14     3     4   ar
    15     4     5   ar
    16     5     6   ar
    17     6     7    2
    18     6     8   ar
    19     8     9   ar
    20     9    10   ar
    21    10    11   ar
    22    11    12   ar
    23    12    13   ar
    24    13    14   ar
    25    14    15   ar
    26    15    16   ar
    27    16    17   ar
    28    17    18   ar
    29    18    19   ar
    30    31    26    1
    31    19     1   ar
    32    19     5   ar
    33    17     8   ar
    34    16    11   ar
    35    22    23    1
