@<TRIPOS>MOLECULE
*****
 32 36 0 0 0
SMALL
GASTEIGER

@<TRIPOS>ATOM
      1 C         143.8366  144.0392  164.0804 C.3     1  UNL1        0.0730
      2 N         142.3451  144.0194  164.2388 N.3     1  UNL1       -0.2724
      3 C         141.4137  145.1616  163.9603 C.3     1  UNL1        0.0724
      4 C         140.0161  144.7021  164.2529 C.3     1  UNL1        0.0214
      5 C         138.7583  143.9718  164.6199 C.3     1  UNL1        0.0072
      6 C         140.0838  143.2758  164.7124 C.3     1  UNL1        0.0350
      7 C         141.5232  142.8539  164.7037 C.3     1  UNL1        0.0761
      8 C         139.5391  141.9648  165.1966 C.ar    1  UNL1       -0.0215
      9 C         139.9698  141.4185  166.5255 C.ar    1  UNL1       -0.0043
     10 C         139.4250  140.1074  167.0097 C.ar    1  UNL1        0.0035
     11 C         138.4495  139.3427  166.1649 C.ar    1  UNL1        0.0714
     12 C         138.0188  139.8890  164.8360 C.ar    1  UNL1        0.0035
     13 C         138.5635  141.2001  164.3518 C.ar    1  UNL1       -0.0043
     14 C         137.9047  138.0317  166.6491 C.3     1  UNL1        0.4186
     15 F         137.3600  136.7206  167.1333 F       1  UNL1       -0.1659
     16 F         137.3576  138.7099  167.8700 F       1  UNL1       -0.1659
     17 F         138.4519  137.3534  165.4282 F       1  UNL1       -0.1659
     18 C         144.6802  143.0252  164.7946 C.3     1  UNL1        0.0294
     19 C         145.5259  142.0665  164.0099 C.3     1  UNL1        0.0666
     20 S         145.2237  140.5976  164.0450 S.3     1  UNL1       -0.0756
     21 C         141.7310  139.5666  162.7023 C.ar    1  UNL1        0.2029
     22 N         141.6154  139.1710  164.1445 N.ar    1  UNL1       -0.1250
     23 N         142.9096  139.5090  164.8230 N.ar    1  UNL1       -0.1220
     24 C         143.8252  140.1136  163.8002 C.ar    1  UNL1        0.1933
     25 N         143.0966  140.1492  162.4895 N.ar    1  UNL1       -0.2860
     26 C         143.6388  140.6751  161.1935 C.3     1  UNL1        0.1341
     27 C         140.1631  141.9884  161.1770 C.3     1  UNL1        0.0556
     28 C         139.9468  140.5207  160.9554 C.ar    1  UNL1        0.1001
     29 N         138.9719  139.9086  159.9938 N.ar    1  UNL1       -0.2085
     30 C         139.0900  138.4170  160.1006 C.ar    1  UNL1        0.2849
     31 O         140.1378  138.1074  161.1281 O.2     1  UNL1       -0.4283
     32 C         140.6674  139.4076  161.6564 C.ar    1  UNL1        0.1964
@<TRIPOS>BOND
     1    27    28    1
     2    28    29   ar
     3    29    30   ar
     4    30    31   ar
     5    31    32   ar
     6    32    21    1
     7    21    22   ar
     8    22    23   ar
     9    23    24   ar
    10    24    20    1
    11    20    19    1
    12    19    18    1
    13    18     1    1
    14     1     2    1
    15     2     3    1
    16     4     3    1
    17     4     5    1
    18     5     6    1
    19     6     8    1
    20     8     9   ar
    21     9    10   ar
    22    10    11   ar
    23    11    14    1
    24    14    15    1
    25    14    16    1
    26    14    17    1
    27    11    12   ar
    28    12    13   ar
    29     6     7    1
    30    24    25   ar
    31    25    26    1
    32    32    28   ar
    33    25    21   ar
    34     7     2    1
    35     6     4    1
    36    13     8   ar
@<TRIPOS>MOLECULE
*****
 32 36 0 0 0
SMALL
GASTEIGER

@<TRIPOS>ATOM
      1 C         137.4026  141.4709  162.7691 C.3     1  UNL1        0.0730
      2 N         138.2383  140.3117  163.2250 N.3     1  UNL1       -0.2724
      3 C         138.3493  138.9817  162.5404 C.3     1  UNL1        0.0724
      4 C         139.2893  138.1269  163.3377 C.3     1  UNL1        0.0214
      5 C         140.2479  137.5238  164.3212 C.3     1  UNL1        0.0072
      6 C         139.7592  138.9286  164.5152 C.3     1  UNL1        0.0350
      7 C         139.1096  140.2789  164.4455 C.3     1  UNL1        0.0761
      8 C         140.5284  139.1895  165.7762 C.ar    1  UNL1       -0.0215
      9 C         139.8379  139.7885  166.9655 C.ar    1  UNL1       -0.0043
     10 C         140.6070  140.0495  168.2267 C.ar    1  UNL1        0.0035
     11 C         142.0667  139.7114  168.2985 C.ar    1  UNL1        0.0714
     12 C         142.7572  139.1124  167.1091 C.ar    1  UNL1        0.0035
     13 C         141.9880  138.8515  165.8480 C.ar    1  UNL1       -0.0043
     14 C         142.8358  139.9723  169.5595 C.3     1  UNL1        0.4186
     15 F         143.6050  140.2332  170.8206 F       1  UNL1       -0.1659
     16 F         142.5588  138.5714  170.0184 F       1  UNL1       -0.1659
     17 F         143.1129  141.3732  169.1006 F       1  UNL1       -0.1659
     18 C         137.2921  142.6981  163.6245 C.3     1  UNL1        0.0294
     19 C         137.7470  144.0255  163.0942 C.3     1  UNL1        0.0666
     20 S         138.9154  144.7243  163.7241 S.3     1  UNL1       -0.0756
     21 C         142.1859  142.7134  164.2942 C.ar    1  UNL1        0.2029
     22 N         141.5918  142.6971  165.6715 N.ar    1  UNL1       -0.1250
     23 N         140.2944  143.4484  165.6255 N.ar    1  UNL1       -0.1220
     24 C         140.0866  143.9290  164.2199 C.ar    1  UNL1        0.1933
     25 N         141.2556  143.4747  163.3972 N.ar    1  UNL1       -0.2860
     26 C         141.4587  143.7360  161.9341 C.3     1  UNL1        0.1341
     27 C         142.5224  140.1192  162.3431 C.3     1  UNL1        0.0556
     28 C         143.6373  140.8872  162.9891 C.ar    1  UNL1        0.1001
     29 N         145.1026  140.5976  162.8516 N.ar    1  UNL1       -0.2085
     30 C         145.8536  141.6110  163.6634 C.ar    1  UNL1        0.2849
     31 O         144.8524  142.5268  164.3026 O.2     1  UNL1       -0.4283
     32 C         143.4827  142.0795  163.8859 C.ar    1  UNL1        0.1964
@<TRIPOS>BOND
     1    27    28    1
     2    28    29   ar
     3    29    30   ar
     4    30    31   ar
     5    31    32   ar
     6    32    21    1
     7    21    22   ar
     8    22    23   ar
     9    23    24   ar
    10    24    20    1
    11    20    19    1
    12    19    18    1
    13    18     1    1
    14     1     2    1
    15     2     3    1
    16     4     3    1
    17     4     5    1
    18     5     6    1
    19     6     8    1
    20     8     9   ar
    21     9    10   ar
    22    10    11   ar
    23    11    14    1
    24    14    15    1
    25    14    16    1
    26    14    17    1
    27    11    12   ar
    28    12    13   ar
    29     6     7    1
    30    24    25   ar
    31    25    26    1
    32    32    28   ar
    33    25    21   ar
    34     7     2    1
    35     6     4    1
    36    13     8   ar
@<TRIPOS>MOLECULE
*****
 32 36 0 0 0
SMALL
GASTEIGER

@<TRIPOS>ATOM
      1 C         140.6803  137.6097  162.2529 C.3     1  UNL1        0.0730
      2 N         141.9186  138.2436  162.8138 N.3     1  UNL1       -0.2724
      3 C         143.2731  138.2539  162.1695 C.3     1  UNL1        0.0724
      4 C         144.2115  138.9953  163.0750 C.3     1  UNL1        0.0214
      5 C         144.8967  139.7683  164.1626 C.3     1  UNL1        0.0072
      6 C         143.4370  139.4432  164.2789 C.3     1  UNL1        0.0350
      7 C         142.0199  138.9786  164.1175 C.3     1  UNL1        0.0761
      8 C         143.2330  140.1102  165.6068 C.ar    1  UNL1       -0.0215
      9 C         142.8758  139.2902  166.8110 C.ar    1  UNL1       -0.0043
     10 C         142.6718  139.9573  168.1390 C.ar    1  UNL1        0.0035
     11 C         142.8251  141.4443  168.2628 C.ar    1  UNL1        0.0714
     12 C         143.1824  142.2643  167.0586 C.ar    1  UNL1        0.0035
     13 C         143.3863  141.5972  165.7306 C.ar    1  UNL1       -0.0043
     14 C         142.6212  142.1113  169.5907 C.3     1  UNL1        0.4186
     15 F         142.4173  142.7783  170.9187 F       1  UNL1       -0.1659
     16 F         141.5425  142.9668  168.9954 F       1  UNL1       -0.1659
     17 F         143.6999  141.2558  170.1861 F       1  UNL1       -0.1659
     18 C         139.3639  137.7907  162.9489 C.3     1  UNL1        0.0294
     19 C         138.1862  138.3353  162.1961 C.3     1  UNL1        0.0666
     20 S         137.9660  139.8170  162.1181 S.3     1  UNL1       -0.0756
     21 C         140.9157  142.1909  162.9720 C.ar    1  UNL1        0.2029
     22 N         140.1412  142.2174  164.2563 N.ar    1  UNL1       -0.1250
     23 N         138.9420  141.3315  164.0927 N.ar    1  UNL1       -0.1220
     24 C         138.9753  140.7573  162.7074 C.ar    1  UNL1        0.1933
     25 N         140.1952  141.2885  162.0148 N.ar    1  UNL1       -0.2860
     26 C         140.6199  140.9727  160.6112 C.3     1  UNL1        0.1341
     27 C         141.3784  145.4003  163.3402 C.3     1  UNL1        0.0556
     28 C         142.4002  144.4112  162.8631 C.ar    1  UNL1        0.1001
     29 N         143.8140  144.7236  162.4715 N.ar    1  UNL1       -0.2085
     30 C         144.4752  143.4416  162.0602 C.ar    1  UNL1        0.2849
     31 O         143.4700  142.3368  162.1977 O.2     1  UNL1       -0.4283
     32 C         142.1875  142.9361  162.6939 C.ar    1  UNL1        0.1964
@<TRIPOS>BOND
     1    27    28    1
     2    28    29   ar
     3    29    30   ar
     4    30    31   ar
     5    31    32   ar
     6    32    21    1
     7    21    22   ar
     8    22    23   ar
     9    23    24   ar
    10    24    20    1
    11    20    19    1
    12    19    18    1
    13    18     1    1
    14     1     2    1
    15     2     3    1
    16     4     3    1
    17     4     5    1
    18     5     6    1
    19     6     8    1
    20     8     9   ar
    21     9    10   ar
    22    10    11   ar
    23    11    14    1
    24    14    15    1
    25    14    16    1
    26    14    17    1
    27    11    12   ar
    28    12    13   ar
    29     6     7    1
    30    24    25   ar
    31    25    26    1
    32    32    28   ar
    33    25    21   ar
    34     7     2    1
    35     6     4    1
    36    13     8   ar
@<TRIPOS>MOLECULE
*****
 32 36 0 0 0
SMALL
GASTEIGER

@<TRIPOS>ATOM
      1 C         142.5873  144.3806  161.9958 C.3     1  UNL1        0.0730
      2 N         141.6244  144.2366  163.1369 N.3     1  UNL1       -0.2724
      3 C         140.3670  145.0301  163.3350 C.3     1  UNL1        0.0724
      4 C         139.7154  144.5577  164.6008 C.3     1  UNL1        0.0214
      5 C         139.3088  143.8901  165.8811 C.3     1  UNL1        0.0072
      6 C         140.5700  143.4721  165.1849 C.3     1  UNL1        0.0350
      7 C         141.7498  143.2737  164.2802 C.3     1  UNL1        0.0761
      8 C         140.9591  142.4219  166.1827 C.ar    1  UNL1       -0.0215
      9 C         141.7206  141.2090  165.7365 C.ar    1  UNL1       -0.0043
     10 C         142.1098  140.1587  166.7343 C.ar    1  UNL1        0.0035
     11 C         141.7374  140.3213  168.1782 C.ar    1  UNL1        0.0714
     12 C         140.9758  141.5342  168.6243 C.ar    1  UNL1        0.0035
     13 C         140.5867  142.5845  167.6266 C.ar    1  UNL1       -0.0043
     14 C         142.1265  139.2710  169.1759 C.3     1  UNL1        0.4186
     15 F         142.5156  138.2208  170.1737 F       1  UNL1       -0.1659
     16 F         143.1790  138.7661  168.2340 F       1  UNL1       -0.1659
     17 F         141.0741  139.7760  170.1179 F       1  UNL1       -0.1659
     18 C         142.2494  143.8057  160.6522 C.3     1  UNL1        0.0294
     19 C         140.9086  144.0761  160.0363 C.3     1  UNL1        0.0666
     20 S         139.9368  142.9519  159.8319 S.3     1  UNL1       -0.0756
     21 C         138.4738  141.1474  162.9413 C.ar    1  UNL1        0.2029
     22 N         137.3612  142.0962  162.6066 N.ar    1  UNL1       -0.1250
     23 N         137.7738  142.8876  161.4011 N.ar    1  UNL1       -0.1220
     24 C         139.1414  142.4280  160.9907 C.ar    1  UNL1        0.1933
     25 N         139.5740  141.3525  161.9426 N.ar    1  UNL1       -0.2860
     26 C         140.8779  140.6121  161.9028 C.3     1  UNL1        0.1341
     27 C         138.7433  137.9064  162.6711 C.3     1  UNL1        0.0556
     28 C         138.6081  138.6763  163.9514 C.ar    1  UNL1        0.1001
     29 N         138.5731  138.0915  165.3323 N.ar    1  UNL1       -0.2085
     30 C         138.4276  139.2198  166.3099 C.ar    1  UNL1        0.2849
     31 O         138.3727  140.5018  165.5332 O.2     1  UNL1       -0.4283
     32 C         138.4843  140.1659  164.0756 C.ar    1  UNL1        0.1964
@<TRIPOS>BOND
     1    27    28    1
     2    28    29   ar
     3    29    30   ar
     4    30    31   ar
     5    31    32   ar
     6    32    21    1
     7    21    22   ar
     8    22    23   ar
     9    23    24   ar
    10    24    20    1
    11    20    19    1
    12    19    18    1
    13    18     1    1
    14     1     2    1
    15     2     3    1
    16     4     3    1
    17     4     5    1
    18     5     6    1
    19     6     8    1
    20     8     9   ar
    21     9    10   ar
    22    10    11   ar
    23    11    14    1
    24    14    15    1
    25    14    16    1
    26    14    17    1
    27    11    12   ar
    28    12    13   ar
    29     6     7    1
    30    24    25   ar
    31    25    26    1
    32    32    28   ar
    33    25    21   ar
    34     7     2    1
    35     6     4    1
    36    13     8   ar
@<TRIPOS>MOLECULE
*****
 32 36 0 0 0
SMALL
GASTEIGER

@<TRIPOS>ATOM
      1 C         138.0094  143.4620  162.4774 C.3     1  UNL1        0.0730
      2 N         138.2089  142.2289  163.3079 N.3     1  UNL1       -0.2724
      3 C         137.8111  140.8342  162.9251 C.3     1  UNL1        0.0724
      4 C         138.1976  139.9173  164.0476 C.3     1  UNL1        0.0214
      5 C         138.6888  139.2634  165.3050 C.3     1  UNL1        0.0072
      6 C         138.8344  140.7453  165.1241 C.3     1  UNL1        0.0350
      7 C         138.8414  142.1739  164.6669 C.3     1  UNL1        0.0761
      8 C         139.4972  141.0002  166.4453 C.ar    1  UNL1       -0.0215
      9 C         140.2491  142.2780  166.6730 C.ar    1  UNL1       -0.0043
     10 C         140.9120  142.5329  167.9943 C.ar    1  UNL1        0.0035
     11 C         140.8229  141.5100  169.0878 C.ar    1  UNL1        0.0714
     12 C         140.0709  140.2322  168.8601 C.ar    1  UNL1        0.0035
     13 C         139.4081  139.9773  167.5388 C.ar    1  UNL1       -0.0043
     14 C         141.4858  141.7649  170.4090 C.3     1  UNL1        0.4186
     15 F         142.1486  142.0198  171.7302 F       1  UNL1       -0.1659
     16 F         141.2438  143.2363  170.2466 F       1  UNL1       -0.1659
     17 F         141.7278  140.2935  170.5715 F       1  UNL1       -0.1659
     18 C         138.5878  144.7708  162.9273 C.3     1  UNL1        0.0294
     19 C         139.3966  145.6004  161.9746 C.3     1  UNL1        0.0666
     20 S         140.8250  145.2398  161.6924 S.3     1  UNL1       -0.0756
     21 C         142.6725  142.5653  163.8134 C.ar    1  UNL1        0.2029
     22 N         142.9356  143.8046  164.6165 N.ar    1  UNL1       -0.1250
     23 N         142.2756  144.9572  163.9197 N.ar    1  UNL1       -0.1220
     24 C         141.6046  144.4304  162.6860 C.ar    1  UNL1        0.1933
     25 N         141.8499  142.9520  162.6204 N.ar    1  UNL1       -0.2860
     26 C         141.3587  142.0235  161.5495 C.3     1  UNL1        0.1341
     27 C         145.7684  141.5352  163.7500 C.3     1  UNL1        0.0556
     28 C         144.5714  140.7086  164.1161 C.ar    1  UNL1        0.1001
     29 N         144.5875  139.2633  164.5174 N.ar    1  UNL1       -0.2085
     30 C         143.1743  138.8436  164.7946 C.ar    1  UNL1        0.2849
     31 O         142.2850  140.0293  164.5646 O.2     1  UNL1       -0.4283
     32 C         143.1485  141.1820  164.1453 C.ar    1  UNL1        0.1964
@<TRIPOS>BOND
     1    27    28    1
     2    28    29   ar
     3    29    30   ar
     4    30    31   ar
     5    31    32   ar
     6    32    21    1
     7    21    22   ar
     8    22    23   ar
     9    23    24   ar
    10    24    20    1
    11    20    19    1
    12    19    18    1
    13    18     1    1
    14     1     2    1
    15     2     3    1
    16     4     3    1
    17     4     5    1
    18     5     6    1
    19     6     8    1
    20     8     9   ar
    21     9    10   ar
    22    10    11   ar
    23    11    14    1
    24    14    15    1
    25    14    16    1
    26    14    17    1
    27    11    12   ar
    28    12    13   ar
    29     6     7    1
    30    24    25   ar
    31    25    26    1
    32    32    28   ar
    33    25    21   ar
    34     7     2    1
    35     6     4    1
    36    13     8   ar
@<TRIPOS>MOLECULE
*****
 32 36 0 0 0
SMALL
GASTEIGER

@<TRIPOS>ATOM
      1 C         138.5968  138.0853  162.4203 C.3     1  UNL1        0.0730
      2 N         139.8305  138.1568  163.2705 N.3     1  UNL1       -0.2724
      3 C         141.0334  137.2681  163.1553 C.3     1  UNL1        0.0724
      4 C         142.0243  137.6916  164.1988 C.3     1  UNL1        0.0214
      5 C         142.7974  138.3288  165.3151 C.3     1  UNL1        0.0072
      6 C         141.4338  138.8421  164.9589 C.3     1  UNL1        0.0350
      7 C         140.0780  139.1296  164.3851 C.3     1  UNL1        0.0761
      8 C         141.3962  139.9223  165.9990 C.ar    1  UNL1       -0.0215
      9 C         142.6137  140.7603  166.2544 C.ar    1  UNL1       -0.0043
     10 C         142.5761  141.8404  167.2946 C.ar    1  UNL1        0.0035
     11 C         141.3209  142.0825  168.0793 C.ar    1  UNL1        0.0714
     12 C         140.1033  141.2444  167.8239 C.ar    1  UNL1        0.0035
     13 C         140.1409  140.1643  166.7838 C.ar    1  UNL1       -0.0043
     14 C         141.2833  143.1626  169.1195 C.3     1  UNL1        0.4186
     15 F         141.2456  144.2428  170.1596 F       1  UNL1       -0.1659
     16 F         139.9919  143.6682  168.5478 F       1  UNL1       -0.1659
     17 F         142.5746  142.6571  169.6912 F       1  UNL1       -0.1659
     18 C         137.9418  139.3469  161.9415 C.3     1  UNL1        0.0294
     19 C         137.7014  139.5576  160.4759 C.3     1  UNL1        0.0666
     20 S         138.5661  140.5091  159.7032 S.3     1  UNL1       -0.0756
     21 C         140.5105  143.2904  161.5869 C.ar    1  UNL1        0.2029
     22 N         139.2780  144.0337  161.1644 N.ar    1  UNL1       -0.1250
     23 N         138.3997  143.0823  160.4073 N.ar    1  UNL1       -0.1220
     24 C         139.0892  141.7510  160.3620 C.ar    1  UNL1        0.1933
     25 N         140.3938  141.8797  161.0910 N.ar    1  UNL1       -0.2860
     26 C         141.4043  140.7889  161.2893 C.3     1  UNL1        0.1341
     27 C         140.5934  143.7453  164.8174 C.3     1  UNL1        0.0556
     28 C         141.6963  144.0674  163.8531 C.ar    1  UNL1        0.1001
     29 N         143.0308  144.6551  164.2044 N.ar    1  UNL1       -0.2085
     30 C         143.8176  144.8092  162.9366 C.ar    1  UNL1        0.2849
     31 O         142.9693  144.3168  161.8019 O.2     1  UNL1       -0.4283
     32 C         141.6582  143.8583  162.3683 C.ar    1  UNL1        0.1964
@<TRIPOS>BOND
     1    27    28    1
     2    28    29   ar
     3    29    30   ar
     4    30    31   ar
     5    31    32   ar
     6    32    21    1
     7    21    22   ar
     8    22    23   ar
     9    23    24   ar
    10    24    20    1
    11    20    19    1
    12    19    18    1
    13    18     1    1
    14     1     2    1
    15     2     3    1
    16     4     3    1
    17     4     5    1
    18     5     6    1
    19     6     8    1
    20     8     9   ar
    21     9    10   ar
    22    10    11   ar
    23    11    14    1
    24    14    15    1
    25    14    16    1
    26    14    17    1
    27    11    12   ar
    28    12    13   ar
    29     6     7    1
    30    24    25   ar
    31    25    26    1
    32    32    28   ar
    33    25    21   ar
    34     7     2    1
    35     6     4    1
    36    13     8   ar
@<TRIPOS>MOLECULE
*****
 32 36 0 0 0
SMALL
GASTEIGER

@<TRIPOS>ATOM
      1 C         142.1790  143.8387  161.3156 C.3     1  UNL1        0.0730
      2 N         143.1038  142.9441  162.0866 N.3     1  UNL1       -0.2724
      3 C         144.4260  142.4210  161.6091 C.3     1  UNL1        0.0724
      4 C         145.0081  141.5691  162.6979 C.3     1  UNL1        0.0214
      5 C         145.3277  140.7926  163.9408 C.3     1  UNL1        0.0072
      6 C         144.0456  141.5657  163.8483 C.3     1  UNL1        0.0350
      7 C         142.8687  142.4154  163.4705 C.3     1  UNL1        0.0761
      8 C         143.5424  141.1986  165.2129 C.ar    1  UNL1       -0.0215
      9 C         143.2751  142.2710  166.2271 C.ar    1  UNL1       -0.0043
     10 C         142.7719  141.9040  167.5918 C.ar    1  UNL1        0.0035
     11 C         142.5361  140.4647  167.9422 C.ar    1  UNL1        0.0714
     12 C         142.8035  139.3923  166.9279 C.ar    1  UNL1        0.0035
     13 C         143.3067  139.7593  165.5633 C.ar    1  UNL1       -0.0043
     14 C         142.0329  140.0977  169.3067 C.3     1  UNL1        0.4186
     15 F         141.5298  139.7306  170.6713 F       1  UNL1       -0.1659
     16 F         140.7260  139.6678  168.7092 F       1  UNL1       -0.1659
     17 F         143.3399  140.5275  169.9043 F       1  UNL1       -0.1659
     18 C         141.8685  143.5375  159.8793 C.3     1  UNL1        0.0294
     19 C         140.5101  143.8486  159.3245 C.3     1  UNL1        0.0666
     20 S         139.4374  142.8001  159.3353 S.3     1  UNL1       -0.0756
     21 C         138.5952  140.9903  162.6640 C.ar    1  UNL1        0.2029
     22 N         137.5288  142.0446  162.6294 N.ar    1  UNL1       -0.1250
     23 N         137.7145  142.8508  161.3783 N.ar    1  UNL1       -0.1220
     24 C         138.8957  142.2949  160.6396 C.ar    1  UNL1        0.1933
     25 N         139.4400  141.1450  161.4343 N.ar    1  UNL1       -0.2860
     26 C         140.6217  140.2984  161.0640 C.3     1  UNL1        0.1341
     27 C         139.5492  141.5737  165.7299 C.3     1  UNL1        0.0556
     28 C         139.2223  140.2300  165.1487 C.ar    1  UNL1        0.1001
     29 N         139.2764  138.9186  165.8749 N.ar    1  UNL1       -0.2085
     30 C         138.8714  137.8399  164.9144 C.ar    1  UNL1        0.2849
     31 O         138.5669  138.4847  163.5948 O.2     1  UNL1       -0.4283
     32 C         138.7838  139.9618  163.7396 C.ar    1  UNL1        0.1964
@<TRIPOS>BOND
     1    27    28    1
     2    28    29   ar
     3    29    30   ar
     4    30    31   ar
     5    31    32   ar
     6    32    21    1
     7    21    22   ar
     8    22    23   ar
     9    23    24   ar
    10    24    20    1
    11    20    19    1
    12    19    18    1
    13    18     1    1
    14     1     2    1
    15     2     3    1
    16     4     3    1
    17     4     5    1
    18     5     6    1
    19     6     8    1
    20     8     9   ar
    21     9    10   ar
    22    10    11   ar
    23    11    14    1
    24    14    15    1
    25    14    16    1
    26    14    17    1
    27    11    12   ar
    28    12    13   ar
    29     6     7    1
    30    24    25   ar
    31    25    26    1
    32    32    28   ar
    33    25    21   ar
    34     7     2    1
    35     6     4    1
    36    13     8   ar
@<TRIPOS>MOLECULE
*****
 32 36 0 0 0
SMALL
GASTEIGER

@<TRIPOS>ATOM
      1 C         141.8521  137.8748  161.8458 C.3     1  UNL1        0.0730
      2 N         140.9304  138.1481  162.9972 N.3     1  UNL1       -0.2724
      3 C         139.5370  137.6160  163.1566 C.3     1  UNL1        0.0724
      4 C         138.9856  138.1405  164.4492 C.3     1  UNL1        0.0214
      5 C         138.7136  138.8053  165.7660 C.3     1  UNL1        0.0072
      6 C         140.0381  138.9968  165.0887 C.3     1  UNL1        0.0350
      7 C         141.2400  139.0015  164.1912 C.3     1  UNL1        0.0761
      8 C         140.6247  139.8902  166.1411 C.ar    1  UNL1       -0.0215
      9 C         141.9219  139.5230  166.7988 C.ar    1  UNL1       -0.0043
     10 C         142.5086  140.4164  167.8513 C.ar    1  UNL1        0.0035
     11 C         141.7980  141.6771  168.2461 C.ar    1  UNL1        0.0714
     12 C         140.5008  142.0443  167.5884 C.ar    1  UNL1        0.0035
     13 C         139.9142  141.1509  166.5359 C.ar    1  UNL1       -0.0043
     14 C         142.3846  142.5705  169.2985 C.3     1  UNL1        0.4186
     15 F         142.9712  143.4639  170.3510 F       1  UNL1       -0.1659
     16 F         141.1538  143.4268  169.2576 F       1  UNL1       -0.1659
     17 F         143.6155  141.7142  169.3394 F       1  UNL1       -0.1659
     18 C         143.3327  138.0479  162.0130 C.3     1  UNL1        0.0294
     19 C         144.0175  139.2500  161.4333 C.3     1  UNL1        0.0666
     20 S         144.5168  140.3376  162.3378 S.3     1  UNL1       -0.0756
     21 C         141.7143  142.8831  163.1930 C.ar    1  UNL1        0.2029
     22 N         142.4195  142.7743  164.5124 N.ar    1  UNL1       -0.1250
     23 N         143.5551  141.8075  164.3527 N.ar    1  UNL1       -0.1220
     24 C         143.5518  141.3188  162.9345 C.ar    1  UNL1        0.1933
     25 N         142.4141  141.9836  162.2178 N.ar    1  UNL1       -0.2860
     26 C         142.0417  141.7839  160.7785 C.3     1  UNL1        0.1341
     27 C         138.6137  141.8736  163.0642 C.3     1  UNL1        0.0556
     28 C         139.0940  143.2770  162.8410 C.ar    1  UNL1        0.1001
     29 N         138.2334  144.4627  162.5194 N.ar    1  UNL1       -0.2085
     30 C         139.1267  145.6595  162.3798 C.ar    1  UNL1        0.2849
     31 O         140.5393  145.2135  162.6151 O.2     1  UNL1       -0.4283
     32 C         140.5191  143.7410  162.9002 C.ar    1  UNL1        0.1964
@<TRIPOS>BOND
     1    27    28    1
     2    28    29   ar
     3    29    30   ar
     4    30    31   ar
     5    31    32   ar
     6    32    21    1
     7    21    22   ar
     8    22    23   ar
     9    23    24   ar
    10    24    20    1
    11    20    19    1
    12    19    18    1
    13    18     1    1
    14     1     2    1
    15     2     3    1
    16     4     3    1
    17     4     5    1
    18     5     6    1
    19     6     8    1
    20     8     9   ar
    21     9    10   ar
    22    10    11   ar
    23    11    14    1
    24    14    15    1
    25    14    16    1
    26    14    17    1
    27    11    12   ar
    28    12    13   ar
    29     6     7    1
    30    24    25   ar
    31    25    26    1
    32    32    28   ar
    33    25    21   ar
    34     7     2    1
    35     6     4    1
    36    13     8   ar
@<TRIPOS>MOLECULE
*****
 32 36 0 0 0
SMALL
GASTEIGER

@<TRIPOS>ATOM
      1 C         144.3149  139.4915  161.2895 C.3     1  UNL1        0.0730
      2 N         144.3592  140.5136  162.3865 N.3     1  UNL1       -0.2724
      3 C         145.0566  141.8403  162.3278 C.3     1  UNL1        0.0724
      4 C         144.8423  142.5351  163.6398 C.3     1  UNL1        0.0214
      5 C         144.4658  142.9715  165.0247 C.3     1  UNL1        0.0072
      6 C         144.0126  141.6377  164.5094 C.3     1  UNL1        0.0350
      7 C         143.7140  140.3883  163.7348 C.3     1  UNL1        0.0761
      8 C         143.2726  141.2336  165.7500 C.ar    1  UNL1       -0.0215
      9 C         142.6819  139.8589  165.8567 C.ar    1  UNL1       -0.0043
     10 C         141.9419  139.4548  167.0974 C.ar    1  UNL1        0.0035
     11 C         141.7926  140.4253  168.2313 C.ar    1  UNL1        0.0714
     12 C         142.3834  141.8000  168.1246 C.ar    1  UNL1        0.0035
     13 C         143.1234  142.2041  166.8840 C.ar    1  UNL1       -0.0043
     14 C         141.0527  140.0212  169.4719 C.3     1  UNL1        0.4186
     15 F         140.3127  139.6171  170.7125 F       1  UNL1       -0.1659
     16 F         142.2995  139.3822  170.0075 F       1  UNL1       -0.1659
     17 F         139.8058  140.6603  168.9364 F       1  UNL1       -0.1659
     18 C         143.8835  138.0868  161.5901 C.3     1  UNL1        0.0294
     19 C         142.5015  137.6321  161.2247 C.3     1  UNL1        0.0666
     20 S         141.5405  138.5913  160.5871 S.3     1  UNL1       -0.0756
     21 C         139.1415  140.9106  162.5697 C.ar    1  UNL1        0.2029
     22 N         138.5054  139.5716  162.7989 N.ar    1  UNL1       -0.1250
     23 N         139.3266  138.5399  162.0841 N.ar    1  UNL1       -0.1220
     24 C         140.4703  139.2411  161.4131 C.ar    1  UNL1        0.1933
     25 N         140.3559  140.7063  161.7133 N.ar    1  UNL1       -0.2860
     26 C         141.2916  141.7789  161.2400 C.3     1  UNL1        0.1341
     27 C         139.5651  142.0266  165.6069 C.3     1  UNL1        0.0556
     28 C         138.8443  142.7363  164.4993 C.ar    1  UNL1        0.1001
     29 N         138.1916  144.0836  164.5934 N.ar    1  UNL1       -0.2085
     30 C         137.5936  144.4033  163.2554 C.ar    1  UNL1        0.2849
     31 O         137.8766  143.2536  162.3345 O.2     1  UNL1       -0.4283
     32 C         138.6496  142.2234  163.1033 C.ar    1  UNL1        0.1964
@<TRIPOS>BOND
     1    27    28    1
     2    28    29   ar
     3    29    30   ar
     4    30    31   ar
     5    31    32   ar
     6    32    21    1
     7    21    22   ar
     8    22    23   ar
     9    23    24   ar
    10    24    20    1
    11    20    19    1
    12    19    18    1
    13    18     1    1
    14     1     2    1
    15     2     3    1
    16     4     3    1
    17     4     5    1
    18     5     6    1
    19     6     8    1
    20     8     9   ar
    21     9    10   ar
    22    10    11   ar
    23    11    14    1
    24    14    15    1
    25    14    16    1
    26    14    17    1
    27    11    12   ar
    28    12    13   ar
    29     6     7    1
    30    24    25   ar
    31    25    26    1
    32    32    28   ar
    33    25    21   ar
    34     7     2    1
    35     6     4    1
    36    13     8   ar
