@<TRIPOS>MOLECULE
*****
 30 34 0 0 0
SMALL
GASTEIGER

@<TRIPOS>ATOM
      1 C         141.1627  143.3797  165.0586 C.3     1  UNL1        0.0971
      2 N         141.0890  143.8065  163.6224 N.3     1  UNL1       -0.2655
      3 C         142.0073  143.1905  162.6089 C.3     1  UNL1        0.1132
      4 C         141.9336  143.6173  161.1728 C.3     1  UNL1        0.1849
      5 N         140.9417  144.6602  160.7503 N.pl3   1  UNL1       -0.1905
      6 C         140.0235  145.2762  161.7638 C.3     1  UNL1        0.1849
      7 C         140.0971  144.8494  163.1999 C.3     1  UNL1        0.1132
      8 C         140.8681  145.0870  159.3141 C.cat   1  UNL1        0.4230
      9 N         141.8295  144.7014  158.2293 N.2     1  UNL1       -0.0678
     10 C         141.3757  145.3504  156.9554 C.2     1  UNL1        0.1887
     11 C         141.9329  145.3267  155.5630 C.2     1  UNL1        0.0395
     12 C         141.2481  146.0898  154.4680 C.2     1  UNL1       -0.0010
     13 C         140.0063  146.8766  154.7656 C.2     1  UNL1       -0.0181
     14 C         139.4490  146.9004  156.1581 C.3     1  UNL1        0.0932
     15 C         140.1338  146.1373  157.2530 C.2     1  UNL1        0.1744
     16 N         139.8201  145.9745  158.7108 N.2     1  UNL1       -0.0716
     17 C         141.5647  141.9765  165.4042 C.3     1  UNL1        0.1264
     18 C         140.6744  141.7450  169.8092 C.ar    1  UNL1        0.1593
     19 C         139.6494  140.7747  170.3172 C.ar    1  UNL1        0.1357
     20 N         138.9213  139.8816  169.3569 N.ar    1  UNL1       -0.2392
     21 C         139.2181  139.9588  167.8886 C.ar    1  UNL1        0.0975
     22 C         138.4899  139.0657  166.9283 C.ar    1  UNL1        0.0255
     23 C         138.7867  139.1428  165.4600 C.ar    1  UNL1        0.0623
     24 C         139.8117  140.1131  164.9519 C.ar    1  UNL1        0.2611
     25 O         140.1084  140.1903  163.4836 O.2     1  UNL1       -0.2670
     26 N         140.5398  141.0062  165.9122 N.ar    1  UNL1       -0.2926
     27 C         140.2430  140.9290  167.3806 C.ar    1  UNL1        0.0832
     28 C         140.9711  141.8221  168.3409 C.ar    1  UNL1        0.0573
     29 C         142.8288  143.0195  170.5048 C.3     1  UNL1        0.2525
     30 O         141.4025  142.6381  170.7695 O.3     1  UNL1       -0.4698
@<TRIPOS>BOND
     1    29    30    1
     2    30    18    1
     3    18    19   ar
     4    19    20   ar
     5    20    21   ar
     6    21    22   ar
     7    22    23   ar
     8    23    24   ar
     9    24    25    2
    10    24    26   ar
    11    26    17    1
    12    17     1    1
    13     1     2    1
    14     2     3    1
    15     3     4    1
    16     4     5    1
    17     5     8    1
    18     8     9    2
    19     9    10    1
    20    10    11    2
    21    11    12    1
    22    12    13    2
    23    13    14    1
    24    14    15    1
    25    15    16    2
    26     5     6    1
    27     6     7    1
    28    26    27   ar
    29    27    28   ar
    30    28    18   ar
    31    27    21   ar
    32     7     2    1
    33    16     8    1
    34    15    10    1
@<TRIPOS>MOLECULE
*****
 30 34 0 0 0
SMALL
GASTEIGER

@<TRIPOS>ATOM
      1 C         142.2039  142.1306  166.7825 C.3     1  UNL1        0.0971
      2 N         142.0762  142.6234  165.3714 N.3     1  UNL1       -0.2655
      3 C         140.7182  142.8503  164.7762 C.3     1  UNL1        0.1132
      4 C         140.5905  143.3431  163.3653 C.3     1  UNL1        0.1849
      5 N         141.8208  143.6089  162.5495 N.pl3   1  UNL1       -0.1905
      6 C         143.1788  143.3820  163.1447 C.3     1  UNL1        0.1849
      7 C         143.3065  142.8892  164.5556 C.3     1  UNL1        0.1132
      8 C         141.6931  144.1017  161.1385 C.cat   1  UNL1        0.4230
      9 N         140.6018  144.9834  160.6078 N.2     1  UNL1       -0.0678
     10 C         140.8685  145.2259  159.1518 C.2     1  UNL1        0.1887
     11 C         140.1298  146.0185  158.1145 C.2     1  UNL1        0.0395
     12 C         140.6474  146.0794  156.7079 C.2     1  UNL1       -0.0010
     13 C         141.9036  145.3476  156.3387 C.2     1  UNL1       -0.0181
     14 C         142.6423  144.5549  157.3760 C.3     1  UNL1        0.0932
     15 C         142.1248  144.4941  158.7826 C.2     1  UNL1        0.1744
     16 N         142.6344  143.7993  160.0104 N.2     1  UNL1       -0.0716
     17 C         142.1027  140.6632  167.0764 C.3     1  UNL1        0.1264
     18 C         142.3014  138.1901  163.3222 C.ar    1  UNL1        0.1593
     19 C         141.0991  137.4157  162.8698 C.ar    1  UNL1        0.1357
     20 N         139.8306  137.4656  163.6687 N.ar    1  UNL1       -0.2392
     21 C         139.7644  138.2900  164.9201 C.ar    1  UNL1        0.0975
     22 C         138.4958  138.3399  165.7191 C.ar    1  UNL1        0.0255
     23 C         138.4296  139.1642  166.9704 C.ar    1  UNL1        0.0623
     24 C         139.6319  139.9387  167.4229 C.ar    1  UNL1        0.2611
     25 O         139.5657  140.7631  168.6743 O.2     1  UNL1       -0.2670
     26 N         140.9004  139.8888  166.6240 N.ar    1  UNL1       -0.2926
     27 C         140.9666  139.0644  165.3725 C.ar    1  UNL1        0.0832
     28 C         142.2352  139.0145  164.5736 C.ar    1  UNL1        0.0573
     29 C         143.5110  138.0428  161.0276 C.3     1  UNL1        0.2525
     30 O         143.5700  138.1402  162.5232 O.3     1  UNL1       -0.4698
@<TRIPOS>BOND
     1    29    30    1
     2    30    18    1
     3    18    19   ar
     4    19    20   ar
     5    20    21   ar
     6    21    22   ar
     7    22    23   ar
     8    23    24   ar
     9    24    25    2
    10    24    26   ar
    11    26    17    1
    12    17     1    1
    13     1     2    1
    14     2     3    1
    15     3     4    1
    16     4     5    1
    17     5     8    1
    18     8     9    2
    19     9    10    1
    20    10    11    2
    21    11    12    1
    22    12    13    2
    23    13    14    1
    24    14    15    1
    25    15    16    2
    26     5     6    1
    27     6     7    1
    28    26    27   ar
    29    27    28   ar
    30    28    18   ar
    31    27    21   ar
    32     7     2    1
    33    16     8    1
    34    15    10    1
@<TRIPOS>MOLECULE
*****
 30 34 0 0 0
SMALL
GASTEIGER

@<TRIPOS>ATOM
      1 C         143.1424  142.6431  166.0972 C.3     1  UNL1        0.0971
      2 N         142.8450  143.0766  164.6923 N.3     1  UNL1       -0.2655
      3 C         141.4280  143.1081  164.2012 C.3     1  UNL1        0.1132
      4 C         141.1306  143.5415  162.7964 C.3     1  UNL1        0.1849
      5 N         142.2501  143.9434  161.8826 N.pl3   1  UNL1       -0.1905
      6 C         143.6671  143.9120  162.3737 C.3     1  UNL1        0.1849
      7 C         143.9646  143.4785  163.7786 C.3     1  UNL1        0.1132
      8 C         141.9528  144.3769  160.4777 C.cat   1  UNL1        0.4230
      9 N         140.8438  145.2938  160.0539 N.2     1  UNL1       -0.0678
     10 C         140.9177  145.4531  158.5643 C.2     1  UNL1        0.1887
     11 C         140.0829  146.2377  157.5961 C.2     1  UNL1        0.0395
     12 C         140.4026  146.2039  156.1310 C.2     1  UNL1       -0.0010
     13 C         141.5572  145.3854  155.6340 C.2     1  UNL1       -0.0181
     14 C         142.3922  144.6008  156.6022 C.3     1  UNL1        0.0932
     15 C         142.0724  144.6346  158.0673 C.2     1  UNL1        0.1744
     16 N         142.7120  143.9695  159.2499 N.2     1  UNL1       -0.0716
     17 C         142.8868  141.2253  166.5147 C.3     1  UNL1        0.1264
     18 C         139.0328  139.1418  165.4871 C.ar    1  UNL1        0.1593
     19 C         138.0303  138.8458  166.5629 C.ar    1  UNL1        0.1357
     20 N         138.3125  139.2442  167.9812 N.ar    1  UNL1       -0.2392
     21 C         139.5971  139.9387  168.3237 C.ar    1  UNL1        0.0975
     22 C         139.8793  140.3372  169.7420 C.ar    1  UNL1        0.0255
     23 C         141.1639  141.0316  170.0846 C.ar    1  UNL1        0.0623
     24 C         142.1665  141.3277  169.0088 C.ar    1  UNL1        0.2611
     25 O         143.4511  142.0222  169.3513 O.2     1  UNL1       -0.2670
     26 N         141.8843  140.9292  167.5904 N.ar    1  UNL1       -0.2926
     27 C         140.5996  140.2347  167.2479 C.ar    1  UNL1        0.0832
     28 C         140.3174  139.8363  165.8296 C.ar    1  UNL1        0.0573
     29 C         139.5821  137.6843  163.4077 C.3     1  UNL1        0.2525
     30 O         138.7507  138.7433  164.0688 O.3     1  UNL1       -0.4698
@<TRIPOS>BOND
     1    29    30    1
     2    30    18    1
     3    18    19   ar
     4    19    20   ar
     5    20    21   ar
     6    21    22   ar
     7    22    23   ar
     8    23    24   ar
     9    24    25    2
    10    24    26   ar
    11    26    17    1
    12    17     1    1
    13     1     2    1
    14     2     3    1
    15     3     4    1
    16     4     5    1
    17     5     8    1
    18     8     9    2
    19     9    10    1
    20    10    11    2
    21    11    12    1
    22    12    13    2
    23    13    14    1
    24    14    15    1
    25    15    16    2
    26     5     6    1
    27     6     7    1
    28    26    27   ar
    29    27    28   ar
    30    28    18   ar
    31    27    21   ar
    32     7     2    1
    33    16     8    1
    34    15    10    1
@<TRIPOS>MOLECULE
*****
 30 34 0 0 0
SMALL
GASTEIGER

@<TRIPOS>ATOM
      1 C         140.3647  142.8646  166.3575 C.3     1  UNL1        0.0971
      2 N         140.5037  143.2793  164.9226 N.3     1  UNL1       -0.2655
      3 C         139.2798  143.5387  164.0950 C.3     1  UNL1        0.1132
      4 C         139.4188  143.9534  162.6603 C.3     1  UNL1        0.1849
      5 N         140.7815  144.1087  162.0531 N.pl3   1  UNL1       -0.1905
      6 C         142.0054  143.8493  162.8807 C.3     1  UNL1        0.1849
      7 C         141.8664  143.4346  164.3155 C.3     1  UNL1        0.1132
      8 C         140.9205  144.5234  160.6182 C.cat   1  UNL1        0.4230
      9 N         139.9564  145.3783  159.8502 N.2     1  UNL1       -0.0678
     10 C         140.4880  145.5393  158.4568 C.2     1  UNL1        0.1887
     11 C         139.9620  146.2761  157.2608 C.2     1  UNL1        0.0395
     12 C         140.7287  146.2576  155.9717 C.2     1  UNL1       -0.0010
     13 C         142.0213  145.5024  155.8785 C.2     1  UNL1       -0.0181
     14 C         142.5473  144.7655  157.0746 C.3     1  UNL1        0.0932
     15 C         141.7806  144.7840  158.3637 C.2     1  UNL1        0.1744
     16 N         142.0479  144.1562  159.6995 N.2     1  UNL1       -0.0716
     17 C         140.0043  141.4487  166.6974 C.3     1  UNL1        0.1264
     18 C         139.0207  138.8675  163.1450 C.ar    1  UNL1        0.1593
     19 C         139.9377  137.7461  162.7559 C.ar    1  UNL1        0.1357
     20 N         141.1826  137.4850  163.5510 N.ar    1  UNL1       -0.2392
     21 C         141.5105  138.3454  164.7351 C.ar    1  UNL1        0.0975
     22 C         142.7554  138.0844  165.5301 C.ar    1  UNL1        0.0255
     23 C         143.0832  138.9448  166.7143 C.ar    1  UNL1        0.0623
     24 C         142.1662  140.0663  167.1034 C.ar    1  UNL1        0.2611
     25 O         142.4941  140.9267  168.2875 O.2     1  UNL1       -0.2670
     26 N         140.9213  140.3273  166.3083 N.ar    1  UNL1       -0.2926
     27 C         140.5935  139.4668  165.1242 C.ar    1  UNL1        0.0832
     28 C         139.3486  139.7279  164.3291 C.ar    1  UNL1        0.0573
     29 C         137.7359  140.2635  161.3701 C.3     1  UNL1        0.2525
     30 O         137.7758  139.1285  162.3500 O.3     1  UNL1       -0.4698
@<TRIPOS>BOND
     1    29    30    1
     2    30    18    1
     3    18    19   ar
     4    19    20   ar
     5    20    21   ar
     6    21    22   ar
     7    22    23   ar
     8    23    24   ar
     9    24    25    2
    10    24    26   ar
    11    26    17    1
    12    17     1    1
    13     1     2    1
    14     2     3    1
    15     3     4    1
    16     4     5    1
    17     5     8    1
    18     8     9    2
    19     9    10    1
    20    10    11    2
    21    11    12    1
    22    12    13    2
    23    13    14    1
    24    14    15    1
    25    15    16    2
    26     5     6    1
    27     6     7    1
    28    26    27   ar
    29    27    28   ar
    30    28    18   ar
    31    27    21   ar
    32     7     2    1
    33    16     8    1
    34    15    10    1
@<TRIPOS>MOLECULE
*****
 30 34 0 0 0
SMALL
GASTEIGER

@<TRIPOS>ATOM
      1 C         140.4341  143.1911  166.4529 C.3     1  UNL1        0.0971
      2 N         140.5505  143.5687  165.0058 N.3     1  UNL1       -0.2655
      3 C         141.7936  143.2268  164.2391 C.3     1  UNL1        0.1132
      4 C         141.9100  143.6043  162.7921 C.3     1  UNL1        0.1849
      5 N         140.7833  144.3238  162.1118 N.pl3   1  UNL1       -0.1905
      6 C         139.5402  144.6657  162.8785 C.3     1  UNL1        0.1849
      7 C         139.4238  144.2882  164.3255 C.3     1  UNL1        0.1132
      8 C         140.8997  144.7014  160.6647 C.cat   1  UNL1        0.4230
      9 N         142.0131  144.3111  159.7385 N.2     1  UNL1       -0.0678
     10 C         141.7247  144.9040  158.3912 C.2     1  UNL1        0.1887
     11 C         142.4713  144.8526  157.0913 C.2     1  UNL1        0.0395
     12 C         141.9263  145.5580  155.8849 C.2     1  UNL1       -0.0010
     13 C         140.6346  146.3147  155.9784 C.2     1  UNL1       -0.0181
     14 C         139.8879  146.3661  157.2784 C.3     1  UNL1        0.0932
     15 C         140.4329  145.6608  158.4848 C.2     1  UNL1        0.1744
     16 N         139.9231  145.5355  159.8899 N.2     1  UNL1       -0.0716
     17 C         139.9804  141.8132  166.8343 C.3     1  UNL1        0.1264
     18 C         143.0183  138.8704  165.2975 C.ar    1  UNL1        0.1593
     19 C         143.8270  138.0547  166.2621 C.ar    1  UNL1        0.1357
     20 N         143.6231  138.2199  167.7390 N.ar    1  UNL1       -0.2392
     21 C         142.6105  139.2008  168.2513 C.ar    1  UNL1        0.0975
     22 C         142.4066  139.3659  169.7281 C.ar    1  UNL1        0.0255
     23 C         141.3940  140.3468  170.2404 C.ar    1  UNL1        0.0623
     24 C         140.5852  141.1626  169.2758 C.ar    1  UNL1        0.2611
     25 O         139.5727  142.1435  169.7880 O.2     1  UNL1       -0.2670
     26 N         140.7891  140.9975  167.7989 N.ar    1  UNL1       -0.2926
     27 C         141.8018  140.0165  167.2867 C.ar    1  UNL1        0.0832
     28 C         142.0057  139.8513  165.8098 C.ar    1  UNL1        0.0573
     29 C         142.1018  138.2000  162.9608 C.3     1  UNL1        0.2525
     30 O         143.2221  138.7053  163.8206 O.3     1  UNL1       -0.4698
@<TRIPOS>BOND
     1    29    30    1
     2    30    18    1
     3    18    19   ar
     4    19    20   ar
     5    20    21   ar
     6    21    22   ar
     7    22    23   ar
     8    23    24   ar
     9    24    25    2
    10    24    26   ar
    11    26    17    1
    12    17     1    1
    13     1     2    1
    14     2     3    1
    15     3     4    1
    16     4     5    1
    17     5     8    1
    18     8     9    2
    19     9    10    1
    20    10    11    2
    21    11    12    1
    22    12    13    2
    23    13    14    1
    24    14    15    1
    25    15    16    2
    26     5     6    1
    27     6     7    1
    28    26    27   ar
    29    27    28   ar
    30    28    18   ar
    31    27    21   ar
    32     7     2    1
    33    16     8    1
    34    15    10    1
@<TRIPOS>MOLECULE
*****
 30 34 0 0 0
SMALL
GASTEIGER

@<TRIPOS>ATOM
      1 C         140.7652  144.6904  164.2849 C.3     1  UNL1        0.0971
      2 N         140.8756  144.8724  162.8000 N.3     1  UNL1       -0.2655
      3 C         139.9484  145.8129  162.0888 C.3     1  UNL1        0.1132
      4 C         140.0587  145.9949  160.6040 C.3     1  UNL1        0.1849
      5 N         141.0962  145.2365  159.8305 N.pl3   1  UNL1       -0.1905
      6 C         142.0234  144.2961  160.5417 C.3     1  UNL1        0.1849
      7 C         141.9131  144.1140  162.0265 C.3     1  UNL1        0.1132
      8 C         141.2066  145.4185  158.3456 C.cat   1  UNL1        0.4230
      9 N         140.2692  146.2097  157.4822 N.2     1  UNL1       -0.0678
     10 C         140.7569  146.1215  156.0665 C.2     1  UNL1        0.1887
     11 C         140.2330  146.7020  154.7864 C.2     1  UNL1        0.0395
     12 C         140.9480  146.4368  153.4947 C.2     1  UNL1       -0.0010
     13 C         142.1868  145.5911  153.4831 C.2     1  UNL1       -0.0181
     14 C         142.7107  145.0106  154.7632 C.3     1  UNL1        0.0932
     15 C         141.9957  145.2758  156.0549 C.2     1  UNL1        0.1744
     16 N         142.2736  144.8413  157.4634 N.2     1  UNL1       -0.0716
     17 C         139.4585  144.2778  164.8949 C.3     1  UNL1        0.1264
     18 C         140.9148  141.7253  168.3028 C.ar    1  UNL1        0.1593
     19 C         140.5415  140.2739  168.3655 C.ar    1  UNL1        0.1357
     20 N         139.6828  139.6733  167.2923 N.ar    1  UNL1       -0.2392
     21 C         139.1973  140.5241  166.1563 C.ar    1  UNL1        0.0975
     22 C         138.3386  139.9234  165.0831 C.ar    1  UNL1        0.0255
     23 C         137.8532  140.7742  163.9471 C.ar    1  UNL1        0.0623
     24 C         138.2264  142.2257  163.8844 C.ar    1  UNL1        0.2611
     25 O         137.7410  143.0765  162.7484 O.2     1  UNL1       -0.2670
     26 N         139.0852  142.8264  164.9576 N.ar    1  UNL1       -0.2926
     27 C         139.5706  141.9755  166.0936 C.ar    1  UNL1        0.0832
     28 C         140.4293  142.5761  167.1668 C.ar    1  UNL1        0.0573
     29 C         141.6933  141.8046  170.7802 C.3     1  UNL1        0.2525
     30 O         141.7735  142.3260  169.3760 O.3     1  UNL1       -0.4698
@<TRIPOS>BOND
     1    29    30    1
     2    30    18    1
     3    18    19   ar
     4    19    20   ar
     5    20    21   ar
     6    21    22   ar
     7    22    23   ar
     8    23    24   ar
     9    24    25    2
    10    24    26   ar
    11    26    17    1
    12    17     1    1
    13     1     2    1
    14     2     3    1
    15     3     4    1
    16     4     5    1
    17     5     8    1
    18     8     9    2
    19     9    10    1
    20    10    11    2
    21    11    12    1
    22    12    13    2
    23    13    14    1
    24    14    15    1
    25    15    16    2
    26     5     6    1
    27     6     7    1
    28    26    27   ar
    29    27    28   ar
    30    28    18   ar
    31    27    21   ar
    32     7     2    1
    33    16     8    1
    34    15    10    1
@<TRIPOS>MOLECULE
*****
 30 34 0 0 0
SMALL
GASTEIGER

@<TRIPOS>ATOM
      1 C         140.9527  142.2494  166.1608 C.3     1  UNL1        0.0971
      2 N         140.9148  142.7201  164.7371 N.3     1  UNL1       -0.2655
      3 C         142.1398  143.3195  164.1125 C.3     1  UNL1        0.1132
      4 C         142.1019  143.7903  162.6888 C.3     1  UNL1        0.1849
      5 N         140.8391  143.6616  161.8897 N.pl3   1  UNL1       -0.1905
      6 C         139.6141  143.0622  162.5143 C.3     1  UNL1        0.1849
      7 C         139.6519  142.5915  163.9380 C.3     1  UNL1        0.1132
      8 C         140.8012  144.1324  160.4660 C.cat   1  UNL1        0.4230
      9 N         141.8597  144.9410  159.7762 N.2     1  UNL1       -0.0678
     10 C         141.4109  145.1856  158.3660 C.2     1  UNL1        0.1887
     11 C         142.0460  145.9220  157.2240 C.2     1  UNL1        0.0395
     12 C         141.3452  146.0009  155.9001 C.2     1  UNL1       -0.0010
     13 C         140.0093  145.3435  155.7182 C.2     1  UNL1       -0.0181
     14 C         139.3741  144.6071  156.8603 C.3     1  UNL1        0.0932
     15 C         140.0749  144.5281  158.1842 C.2     1  UNL1        0.1744
     16 N         139.6981  143.8772  159.4820 N.2     1  UNL1       -0.0716
     17 C         141.3110  140.8261  166.4709 C.3     1  UNL1        0.1264
     18 C         142.8649  138.9386  162.6930 C.ar    1  UNL1        0.1593
     19 C         142.1063  137.8167  162.0482 C.ar    1  UNL1        0.1357
     20 N         140.8297  137.3240  162.6627 N.ar    1  UNL1       -0.2392
     21 C         140.3117  137.9531  163.9219 C.ar    1  UNL1        0.0975
     22 C         139.0352  137.4604  164.5364 C.ar    1  UNL1        0.0255
     23 C         138.5172  138.0896  165.7957 C.ar    1  UNL1        0.0623
     24 C         139.2758  139.2115  166.4405 C.ar    1  UNL1        0.2611
     25 O         138.7578  139.8407  167.6998 O.2     1  UNL1       -0.2670
     26 N         140.5524  139.7043  165.8261 N.ar    1  UNL1       -0.2926
     27 C         141.0703  139.0750  164.5667 C.ar    1  UNL1        0.0832
     28 C         142.3469  139.5677  163.9523 C.ar    1  UNL1        0.0573
     29 C         144.6967  140.7678  162.4728 C.3     1  UNL1        0.2525
     30 O         144.1415  139.4313  162.0785 O.3     1  UNL1       -0.4698
@<TRIPOS>BOND
     1    29    30    1
     2    30    18    1
     3    18    19   ar
     4    19    20   ar
     5    20    21   ar
     6    21    22   ar
     7    22    23   ar
     8    23    24   ar
     9    24    25    2
    10    24    26   ar
    11    26    17    1
    12    17     1    1
    13     1     2    1
    14     2     3    1
    15     3     4    1
    16     4     5    1
    17     5     8    1
    18     8     9    2
    19     9    10    1
    20    10    11    2
    21    11    12    1
    22    12    13    2
    23    13    14    1
    24    14    15    1
    25    15    16    2
    26     5     6    1
    27     6     7    1
    28    26    27   ar
    29    27    28   ar
    30    28    18   ar
    31    27    21   ar
    32     7     2    1
    33    16     8    1
    34    15    10    1
@<TRIPOS>MOLECULE
*****
 30 34 0 0 0
SMALL
GASTEIGER

@<TRIPOS>ATOM
      1 C         143.7918  138.6735  160.4672 C.3     1  UNL1        0.0971
      2 N         143.5715  139.0587  161.9001 N.3     1  UNL1       -0.2655
      3 C         142.7930  138.1542  162.8087 C.3     1  UNL1        0.1132
      4 C         142.5726  138.5393  164.2416 C.3     1  UNL1        0.1849
      5 N         143.1309  139.8290  164.7658 N.pl3   1  UNL1       -0.1905
      6 C         143.9095  140.7336  163.8572 C.3     1  UNL1        0.1849
      7 C         144.1298  140.3485  162.4244 C.3     1  UNL1        0.1132
      8 C         142.9106  140.2142  166.1987 C.cat   1  UNL1        0.4230
      9 N         142.9180  141.6102  166.7476 N.2     1  UNL1       -0.0678
     10 C         142.6562  141.5299  168.2224 C.2     1  UNL1        0.1887
     11 C         142.5501  142.5863  169.2819 C.2     1  UNL1        0.0395
     12 C         142.2747  142.1971  170.7041 C.2     1  UNL1       -0.0010
     13 C         142.1055  140.7515  171.0668 C.2     1  UNL1       -0.0181
     14 C         142.2116  139.6950  170.0072 C.3     1  UNL1        0.0932
     15 C         142.4870  140.0842  168.5850 C.2     1  UNL1        0.1744
     16 N         142.6442  139.2711  167.3343 N.2     1  UNL1       -0.0716
     17 C         142.7575  137.8664  159.7401 C.3     1  UNL1        0.1264
     18 C         138.6373  139.0503  161.1082 C.ar    1  UNL1        0.1593
     19 C         137.6949  139.7231  160.1547 C.ar    1  UNL1        0.1357
     20 N         138.1259  140.0012  158.7452 N.ar    1  UNL1       -0.2392
     21 C         139.4993  139.6066  158.2891 C.ar    1  UNL1        0.0975
     22 C         139.9303  139.8848  156.8796 C.ar    1  UNL1        0.0255
     23 C         141.3037  139.4902  156.4235 C.ar    1  UNL1        0.0623
     24 C         142.2462  138.8174  157.3770 C.ar    1  UNL1        0.2611
     25 O         143.6196  138.4228  156.9210 O.2     1  UNL1       -0.2670
     26 N         141.8152  138.5392  158.7866 N.ar    1  UNL1       -0.2926
     27 C         140.4417  138.9338  159.2426 C.ar    1  UNL1        0.0832
     28 C         140.0107  138.6557  160.6522 C.ar    1  UNL1        0.0573
     29 C         138.9412  137.7553  163.3399 C.3     1  UNL1        0.2525
     30 O         138.2063  138.7721  162.5178 O.3     1  UNL1       -0.4698
@<TRIPOS>BOND
     1    29    30    1
     2    30    18    1
     3    18    19   ar
     4    19    20   ar
     5    20    21   ar
     6    21    22   ar
     7    22    23   ar
     8    23    24   ar
     9    24    25    2
    10    24    26   ar
    11    26    17    1
    12    17     1    1
    13     1     2    1
    14     2     3    1
    15     3     4    1
    16     4     5    1
    17     5     8    1
    18     8     9    2
    19     9    10    1
    20    10    11    2
    21    11    12    1
    22    12    13    2
    23    13    14    1
    24    14    15    1
    25    15    16    2
    26     5     6    1
    27     6     7    1
    28    26    27   ar
    29    27    28   ar
    30    28    18   ar
    31    27    21   ar
    32     7     2    1
    33    16     8    1
    34    15    10    1
@<TRIPOS>MOLECULE
*****
 30 34 0 0 0
SMALL
GASTEIGER

@<TRIPOS>ATOM
      1 C         142.2634  143.3216  164.3034 C.3     1  UNL1        0.0971
      2 N         142.8693  143.0493  162.9584 N.3     1  UNL1       -0.2655
      3 C         142.0658  143.2807  161.7131 C.3     1  UNL1        0.1132
      4 C         142.6717  143.0084  160.3682 C.3     1  UNL1        0.1849
      5 N         144.0811  142.5048  160.2687 N.pl3   1  UNL1       -0.1905
      6 C         144.8846  142.2734  161.5140 C.3     1  UNL1        0.1849
      7 C         144.2787  142.5457  162.8589 C.3     1  UNL1        0.1132
      8 C         144.6870  142.2325  158.9238 C.cat   1  UNL1        0.4230
      9 N         144.1338  141.3105  157.8778 N.2     1  UNL1       -0.0678
     10 C         145.0574  141.3425  156.6963 C.2     1  UNL1        0.1887
     11 C         145.0201  140.6359  155.3738 C.2     1  UNL1        0.0395
     12 C         146.1068  140.8709  154.3669 C.2     1  UNL1       -0.0010
     13 C         147.2308  141.8127  154.6826 C.2     1  UNL1       -0.0181
     14 C         147.2681  142.5194  156.0052 C.3     1  UNL1        0.0932
     15 C         146.1814  142.2843  157.0120 C.2     1  UNL1        0.1744
     16 N         145.9525  142.8343  158.3887 N.2     1  UNL1       -0.0716
     17 C         141.3560  142.3086  164.9361 C.3     1  UNL1        0.1264
     18 C         142.0766  142.3652  169.3777 C.ar    1  UNL1        0.1593
     19 C         142.6561  141.1610  170.0588 C.ar    1  UNL1        0.1357
     20 N         142.9954  139.9379  169.2595 N.ar    1  UNL1       -0.2392
     21 C         142.7552  139.9190  167.7790 C.ar    1  UNL1        0.0975
     22 C         143.0945  138.6959  166.9797 C.ar    1  UNL1        0.0255
     23 C         142.8543  138.6771  165.4992 C.ar    1  UNL1        0.0623
     24 C         142.2748  139.8813  164.8179 C.ar    1  UNL1        0.2611
     25 O         142.0345  139.8624  163.3375 O.2     1  UNL1       -0.2670
     26 N         141.9355  141.1044  165.6173 N.ar    1  UNL1       -0.2926
     27 C         142.1757  141.1232  167.0978 C.ar    1  UNL1        0.0832
     28 C         141.8364  142.3463  167.8972 C.ar    1  UNL1        0.0573
     29 C         140.3754  144.2061  170.0610 C.3     1  UNL1        0.2525
     30 O         141.7373  143.5883  170.1770 O.3     1  UNL1       -0.4698
@<TRIPOS>BOND
     1    29    30    1
     2    30    18    1
     3    18    19   ar
     4    19    20   ar
     5    20    21   ar
     6    21    22   ar
     7    22    23   ar
     8    23    24   ar
     9    24    25    2
    10    24    26   ar
    11    26    17    1
    12    17     1    1
    13     1     2    1
    14     2     3    1
    15     3     4    1
    16     4     5    1
    17     5     8    1
    18     8     9    2
    19     9    10    1
    20    10    11    2
    21    11    12    1
    22    12    13    2
    23    13    14    1
    24    14    15    1
    25    15    16    2
    26     5     6    1
    27     6     7    1
    28    26    27   ar
    29    27    28   ar
    30    28    18   ar
    31    27    21   ar
    32     7     2    1
    33    16     8    1
    34    15    10    1
