@<TRIPOS>MOLECULE
*****
 32 34 0 0 0
SMALL
GASTEIGER

@<TRIPOS>ATOM
      1 C         139.8554  143.9281  159.9357 C.3     1  UNL1        0.0924
      2 N         137.9484  141.4210  162.3497 N.am    1  UNL1       -0.2683
      3 C         139.0443  142.0614  161.5505 C.2     1  UNL1        0.3045
      4 O         140.4251  141.4755  161.5668 O.2     1  UNL1       -0.2525
      5 N         138.7595  143.2877  160.7349 N.am    1  UNL1       -0.2887
      6 H         137.0422  141.8055  162.3390 H       1  UNL1        0.1564
      7 H         137.8533  143.6722  160.7242 H       1  UNL1        0.1510
      8 C         138.4936  139.0417  165.4789 C.ar    1  UNL1        0.0359
      9 C         138.8028  137.7422  164.7965 C.ar    1  UNL1        0.0029
     10 C         138.8272  137.6690  163.2985 C.ar    1  UNL1        0.0014
     11 C         138.5424  138.8952  162.4829 C.ar    1  UNL1        0.0147
     12 C         138.2332  140.1947  163.1653 C.ar    1  UNL1        0.0517
     13 C         138.2088  140.2679  164.6634 C.ar    1  UNL1        0.0176
     14 C         139.4956  139.9315  167.7048 C.3     1  UNL1        0.0773
     15 C         138.4692  139.1149  166.9769 C.2     1  UNL1        0.1735
     16 O         137.4184  138.3716  167.7472 O.2     1  UNL1       -0.2913
     17 C         140.8473  144.8288  160.6100 C.3     1  UNL1        0.0386
     18 C         140.4593  145.5754  161.8519 C.3     1  UNL1        0.0738
     19 N         140.2721  144.8363  163.1436 N.3     1  UNL1       -0.2726
     20 C         139.0032  145.0030  163.9259 C.3     1  UNL1        0.0721
     21 C         138.8159  144.2640  165.2177 C.3     1  UNL1        0.0174
     22 C         139.8976  143.3582  165.7272 C.3     1  UNL1        0.0031
     23 C         141.1666  143.1915  164.9449 C.3     1  UNL1        0.0204
     24 C         141.3538  143.9306  163.6531 C.3     1  UNL1        0.0724
     25 C         142.2483  142.2858  165.4543 C.3     1  UNL1        0.0277
     26 C         142.7525  141.1634  164.5964 C.ar    1  UNL1       -0.0220
     27 C         144.0857  141.2781  163.9186 C.ar    1  UNL1       -0.0020
     28 C         144.5899  140.1557  163.0606 C.ar    1  UNL1        0.0293
     29 C         143.7610  138.9186  162.8806 C.ar    1  UNL1        0.1401
     30 F         144.2652  137.7962  162.0227 F       1  UNL1       -0.2042
     31 C         142.4278  138.8039  163.5585 C.ar    1  UNL1        0.0293
     32 C         141.9236  139.9263  164.4164 C.ar    1  UNL1       -0.0020
@<TRIPOS>BOND
     1    14    15    1
     2    15    16    2
     3    15     8    1
     4     8     9   ar
     5     9    10   ar
     6    10    11   ar
     7    11    12   ar
     8    12     2    1
     9     2     3   am
    10     3     4    2
    11     3     5   am
    12     5     1    1
    13     1    17    1
    14    17    18    1
    15    18    19    1
    16    19    20    1
    17    20    21    1
    18    21    22    1
    19    22    23    1
    20    23    25    1
    21    25    26    1
    22    26    27   ar
    23    27    28   ar
    24    28    29   ar
    25    29    30    1
    26    29    31   ar
    27    31    32   ar
    28    23    24    1
    29    12    13   ar
    30    13     8   ar
    31    24    19    1
    32    32    26   ar
    33     2     6    1
    34     5     7    1
@<TRIPOS>MOLECULE
*****
 32 34 0 0 0
SMALL
GASTEIGER

@<TRIPOS>ATOM
      1 C         139.8660  143.6873  159.9848 C.3     1  UNL1        0.0924
      2 N         137.9598  141.1490  162.3667 N.am    1  UNL1       -0.2683
      3 C         139.0667  141.8369  161.6241 C.2     1  UNL1        0.3045
      4 O         140.4813  141.3622  161.7780 O.2     1  UNL1       -0.2525
      5 N         138.7591  142.9994  160.7275 N.am    1  UNL1       -0.2887
      6 H         137.0314  141.4606  162.2657 H       1  UNL1        0.1564
      7 H         137.8307  143.3110  160.6264 H       1  UNL1        0.1510
      8 C         138.4747  138.9779  165.6487 C.ar    1  UNL1        0.0359
      9 C         138.8826  137.6615  165.0566 C.ar    1  UNL1        0.0029
     10 C         138.9828  137.5075  163.5679 C.ar    1  UNL1        0.0014
     11 C         138.6752  138.6700  162.6713 C.ar    1  UNL1        0.0147
     12 C         138.2674  139.9864  163.2634 C.ar    1  UNL1        0.0517
     13 C         138.1671  140.1404  164.7521 C.ar    1  UNL1        0.0176
     14 C         139.2892  140.0782  167.8568 C.3     1  UNL1        0.0773
     15 C         138.3744  139.1319  167.1374 C.2     1  UNL1        0.1735
     16 O         137.3594  138.3395  167.9067 O.2     1  UNL1       -0.2913
     17 C         140.0317  145.1740  160.0941 C.3     1  UNL1        0.0386
     18 C         140.3295  145.7997  161.4246 C.3     1  UNL1        0.0738
     19 N         140.3275  144.9584  162.6663 N.3     1  UNL1       -0.2726
     20 C         139.0551  144.7592  163.4352 C.3     1  UNL1        0.0721
     21 C         139.0530  143.9178  164.6771 C.3     1  UNL1        0.0174
     22 C         140.3235  143.2756  165.1499 C.3     1  UNL1        0.0031
     23 C         141.5959  143.4748  164.3809 C.3     1  UNL1        0.0204
     24 C         141.5979  144.3162  163.1392 C.3     1  UNL1        0.0724
     25 C         142.8663  142.8326  164.8538 C.3     1  UNL1        0.0277
     26 C         142.8206  141.7671  165.9087 C.ar    1  UNL1       -0.0220
     27 C         142.7148  140.3241  165.5132 C.ar    1  UNL1       -0.0020
     28 C         142.6691  139.2586  166.5681 C.ar    1  UNL1        0.0293
     29 C         142.7292  139.6362  168.0185 C.ar    1  UNL1        0.1401
     30 F         142.6835  138.5709  169.0734 F       1  UNL1       -0.2042
     31 C         142.8350  141.0793  168.4140 C.ar    1  UNL1        0.0293
     32 C         142.8807  142.1447  167.3592 C.ar    1  UNL1       -0.0020
@<TRIPOS>BOND
     1    14    15    1
     2    15    16    2
     3    15     8    1
     4     8     9   ar
     5     9    10   ar
     6    10    11   ar
     7    11    12   ar
     8    12     2    1
     9     2     3   am
    10     3     4    2
    11     3     5   am
    12     5     1    1
    13     1    17    1
    14    17    18    1
    15    18    19    1
    16    19    20    1
    17    20    21    1
    18    21    22    1
    19    22    23    1
    20    23    25    1
    21    25    26    1
    22    26    27   ar
    23    27    28   ar
    24    28    29   ar
    25    29    30    1
    26    29    31   ar
    27    31    32   ar
    28    23    24    1
    29    12    13   ar
    30    13     8   ar
    31    24    19    1
    32    32    26   ar
    33     2     6    1
    34     5     7    1
@<TRIPOS>MOLECULE
*****
 32 34 0 0 0
SMALL
GASTEIGER

@<TRIPOS>ATOM
      1 C         142.2149  143.0000  160.1843 C.3     1  UNL1        0.0924
      2 N         142.5153  143.1658  164.1381 N.am    1  UNL1       -0.2683
      3 C         142.1305  142.7033  162.7640 C.2     1  UNL1        0.3045
      4 O         141.2765  141.4817  162.5956 O.2     1  UNL1       -0.2525
      5 N         142.5997  143.4625  161.5583 N.am    1  UNL1       -0.2887
      6 H         143.0758  143.9676  164.2486 H       1  UNL1        0.1564
      7 H         143.1602  144.2642  161.6688 H       1  UNL1        0.1510
      8 C         142.2750  140.3847  166.9590 C.ar    1  UNL1        0.0359
      9 C         141.1078  140.8885  167.7551 C.ar    1  UNL1        0.0029
     10 C         140.4098  142.1514  167.3455 C.ar    1  UNL1        0.0014
     11 C         140.8789  142.9105  166.1398 C.ar    1  UNL1        0.0147
     12 C         142.0461  142.4067  165.3438 C.ar    1  UNL1        0.0517
     13 C         142.7442  141.1438  165.7534 C.ar    1  UNL1        0.0176
     14 C         143.5995  138.2401  166.3292 C.3     1  UNL1        0.0773
     15 C         142.9731  139.1218  167.3686 C.2     1  UNL1        0.1735
     16 O         143.0447  138.7405  168.8175 O.2     1  UNL1       -0.2913
     17 C         141.4981  143.9318  159.2527 C.3     1  UNL1        0.0386
     18 C         140.0433  144.2308  159.4635 C.3     1  UNL1        0.0738
     19 N         139.4509  144.1415  160.8386 N.3     1  UNL1       -0.2726
     20 C         139.6822  145.2448  161.8280 C.3     1  UNL1        0.0721
     21 C         139.0897  145.1555  163.2032 C.3     1  UNL1        0.0174
     22 C         138.2658  143.9628  163.5888 C.3     1  UNL1        0.0031
     23 C         138.0345  142.8594  162.5993 C.3     1  UNL1        0.0204
     24 C         138.6270  142.9488  161.2242 C.3     1  UNL1        0.0724
     25 C         137.2106  141.6667  162.9849 C.3     1  UNL1        0.0277
     26 C         137.8774  140.4407  163.5348 C.ar    1  UNL1       -0.0220
     27 C         138.2076  139.2947  162.6251 C.ar    1  UNL1       -0.0020
     28 C         138.8744  138.0686  163.1750 C.ar    1  UNL1        0.0293
     29 C         139.2109  137.9887  164.6346 C.ar    1  UNL1        0.1401
     30 F         139.8777  136.7627  165.1844 F       1  UNL1       -0.2042
     31 C         138.8807  139.1347  165.5443 C.ar    1  UNL1        0.0293
     32 C         138.2139  140.3607  164.9944 C.ar    1  UNL1       -0.0020
@<TRIPOS>BOND
     1    14    15    1
     2    15    16    2
     3    15     8    1
     4     8     9   ar
     5     9    10   ar
     6    10    11   ar
     7    11    12   ar
     8    12     2    1
     9     2     3   am
    10     3     4    2
    11     3     5   am
    12     5     1    1
    13     1    17    1
    14    17    18    1
    15    18    19    1
    16    19    20    1
    17    20    21    1
    18    21    22    1
    19    22    23    1
    20    23    25    1
    21    25    26    1
    22    26    27   ar
    23    27    28   ar
    24    28    29   ar
    25    29    30    1
    26    29    31   ar
    27    31    32   ar
    28    23    24    1
    29    12    13   ar
    30    13     8   ar
    31    24    19    1
    32    32    26   ar
    33     2     6    1
    34     5     7    1
@<TRIPOS>MOLECULE
*****
 32 34 0 0 0
SMALL
GASTEIGER

@<TRIPOS>ATOM
      1 C         139.2069  140.5039  161.4061 C.3     1  UNL1        0.0924
      2 N         139.5593  140.3090  165.3543 N.am    1  UNL1       -0.2683
      3 C         139.9145  140.4695  163.9058 C.2     1  UNL1        0.3045
      4 O         141.3322  140.7560  163.5085 O.2     1  UNL1       -0.2525
      5 N         138.8518  140.3434  162.8546 N.am    1  UNL1       -0.2887
      6 H         138.6288  140.1209  165.6150 H       1  UNL1        0.1564
      7 H         137.9213  140.1553  163.1154 H       1  UNL1        0.1510
      8 C         141.6677  141.7236  168.4045 C.ar    1  UNL1        0.0359
      9 C         142.7471  140.6872  168.5078 C.ar    1  UNL1        0.0029
     10 C         142.7640  139.5248  167.5599 C.ar    1  UNL1        0.0014
     11 C         141.7014  139.3987  166.5088 C.ar    1  UNL1        0.0147
     12 C         140.6220  140.4350  166.4055 C.ar    1  UNL1        0.0517
     13 C         140.6051  141.5975  167.3533 C.ar    1  UNL1        0.0176
     14 C         140.3907  143.6757  169.5484 C.3     1  UNL1        0.0773
     15 C         141.6508  142.8860  169.3523 C.2     1  UNL1        0.1735
     16 O         142.8941  143.2589  170.1041 O.2     1  UNL1       -0.2913
     17 C         138.3473  141.3476  160.5122 C.3     1  UNL1        0.0386
     18 C         138.3610  142.8412  160.6503 C.3     1  UNL1        0.0738
     19 N         138.6547  143.4688  161.9806 N.3     1  UNL1       -0.2726
     20 C         137.5599  143.6257  162.9939 C.3     1  UNL1        0.0721
     21 C         137.8536  144.2533  164.3243 C.3     1  UNL1        0.0174
     22 C         139.2421  144.7240  164.6414 C.3     1  UNL1        0.0031
     23 C         140.3370  144.5670  163.6280 C.3     1  UNL1        0.0204
     24 C         140.0432  143.9395  162.2977 C.3     1  UNL1        0.0724
     25 C         141.7255  145.0377  163.9451 C.3     1  UNL1        0.0277
     26 C         142.8645  144.0617  163.9540 C.ar    1  UNL1       -0.0220
     27 C         143.7504  143.9319  162.7505 C.ar    1  UNL1       -0.0020
     28 C         144.8894  142.9558  162.7594 C.ar    1  UNL1        0.0293
     29 C         145.1425  142.1096  163.9718 C.ar    1  UNL1        0.1401
     30 F         146.2815  141.1336  163.9808 F       1  UNL1       -0.2042
     31 C         144.2566  142.2395  165.1753 C.ar    1  UNL1        0.0293
     32 C         143.1176  143.2155  165.1664 C.ar    1  UNL1       -0.0020
@<TRIPOS>BOND
     1    14    15    1
     2    15    16    2
     3    15     8    1
     4     8     9   ar
     5     9    10   ar
     6    10    11   ar
     7    11    12   ar
     8    12     2    1
     9     2     3   am
    10     3     4    2
    11     3     5   am
    12     5     1    1
    13     1    17    1
    14    17    18    1
    15    18    19    1
    16    19    20    1
    17    20    21    1
    18    21    22    1
    19    22    23    1
    20    23    25    1
    21    25    26    1
    22    26    27   ar
    23    27    28   ar
    24    28    29   ar
    25    29    30    1
    26    29    31   ar
    27    31    32   ar
    28    23    24    1
    29    12    13   ar
    30    13     8   ar
    31    24    19    1
    32    32    26   ar
    33     2     6    1
    34     5     7    1
@<TRIPOS>MOLECULE
*****
 32 34 0 0 0
SMALL
GASTEIGER

@<TRIPOS>ATOM
      1 C         139.4383  145.4902  162.5124 C.3     1  UNL1        0.0924
      2 N         142.4416  143.8247  164.5014 N.am    1  UNL1       -0.2683
      3 C         141.3989  144.0669  163.4507 C.2     1  UNL1        0.3045
      4 O         141.2740  143.1280  162.2875 O.2     1  UNL1       -0.2525
      5 N         140.4810  145.2480  163.5631 N.am    1  UNL1       -0.2887
      6 H         142.5236  144.4409  165.2648 H       1  UNL1        0.1564
      7 H         140.5630  145.8642  164.3265 H       1  UNL1        0.1510
      8 C         143.8105  140.1057  164.7136 C.ar    1  UNL1        0.0359
      9 C         145.1951  140.2815  164.1641 C.ar    1  UNL1        0.0029
     10 C         145.6619  141.6384  163.7270 C.ar    1  UNL1        0.0014
     11 C         144.7441  142.8194  163.8394 C.ar    1  UNL1        0.0147
     12 C         143.3595  142.6436  164.3889 C.ar    1  UNL1        0.0517
     13 C         142.8927  141.2868  164.8260 C.ar    1  UNL1        0.0176
     14 C         142.2937  138.0262  164.3601 C.3     1  UNL1        0.0773
     15 C         143.3438  138.7489  165.1507 C.2     1  UNL1        0.1735
     16 O         143.9270  138.1146  166.3785 O.2     1  UNL1       -0.2913
     17 C         138.1386  144.7428  162.5593 C.3     1  UNL1        0.0386
     18 C         137.7611  143.9712  163.7890 C.3     1  UNL1        0.0738
     19 N         138.0427  142.4999  163.8672 N.3     1  UNL1       -0.2726
     20 C         137.5400  141.5820  162.7926 C.3     1  UNL1        0.0721
     21 C         137.8216  140.1107  162.8707 C.3     1  UNL1        0.0174
     22 C         138.6058  139.5574  164.0235 C.3     1  UNL1        0.0031
     23 C         139.1085  140.4754  165.0981 C.3     1  UNL1        0.0204
     24 C         138.8269  141.9466  165.0199 C.3     1  UNL1        0.0724
     25 C         139.8927  139.9221  166.2508 C.3     1  UNL1        0.0277
     26 C         139.8988  140.6407  167.5675 C.ar    1  UNL1       -0.0220
     27 C         140.6452  141.9336  167.7129 C.ar    1  UNL1       -0.0020
     28 C         140.6513  142.6522  169.0296 C.ar    1  UNL1        0.0293
     29 C         139.9110  142.0778  170.2009 C.ar    1  UNL1        0.1401
     30 F         139.9170  142.7963  171.5176 F       1  UNL1       -0.2042
     31 C         139.1646  140.7847  170.0555 C.ar    1  UNL1        0.0293
     32 C         139.1585  140.0662  168.7389 C.ar    1  UNL1       -0.0020
@<TRIPOS>BOND
     1    14    15    1
     2    15    16    2
     3    15     8    1
     4     8     9   ar
     5     9    10   ar
     6    10    11   ar
     7    11    12   ar
     8    12     2    1
     9     2     3   am
    10     3     4    2
    11     3     5   am
    12     5     1    1
    13     1    17    1
    14    17    18    1
    15    18    19    1
    16    19    20    1
    17    20    21    1
    18    21    22    1
    19    22    23    1
    20    23    25    1
    21    25    26    1
    22    26    27   ar
    23    27    28   ar
    24    28    29   ar
    25    29    30    1
    26    29    31   ar
    27    31    32   ar
    28    23    24    1
    29    12    13   ar
    30    13     8   ar
    31    24    19    1
    32    32    26   ar
    33     2     6    1
    34     5     7    1
@<TRIPOS>MOLECULE
*****
 32 34 0 0 0
SMALL
GASTEIGER

@<TRIPOS>ATOM
      1 C         137.5125  141.1814  162.9122 C.3     1  UNL1        0.0924
      2 N         139.0906  139.8855  166.3151 N.am    1  UNL1       -0.2683
      3 C         138.8474  140.7203  165.0929 C.2     1  UNL1        0.3045
      4 O         139.6958  141.9288  164.8291 O.2     1  UNL1       -0.2525
      5 N         137.7557  140.3466  164.1344 N.am    1  UNL1       -0.2887
      6 H         138.5337  139.0922  166.4882 H       1  UNL1        0.1564
      7 H         137.1989  139.5534  164.3075 H       1  UNL1        0.1510
      8 C         141.0056  141.6253  169.3244 C.ar    1  UNL1        0.0359
      9 C         142.3654  141.0066  169.1906 C.ar    1  UNL1        0.0029
     10 C         142.6337  140.0141  168.0983 C.ar    1  UNL1        0.0014
     11 C         141.5421  139.6404  167.1399 C.ar    1  UNL1        0.0147
     12 C         140.1823  140.2592  167.2736 C.ar    1  UNL1        0.0517
     13 C         139.9140  141.2516  168.3659 C.ar    1  UNL1        0.0176
     14 C         140.5313  144.0651  170.0811 C.3     1  UNL1        0.0773
     15 C         140.7373  142.6177  170.4167 C.2     1  UNL1        0.1735
     16 O         140.6749  142.1628  171.8447 O.2     1  UNL1       -0.2913
     17 C         138.2450  140.8781  161.6389 C.3     1  UNL1        0.0386
     18 C         138.7830  139.4995  161.3932 C.3     1  UNL1        0.0738
     19 N         139.9085  138.9729  162.2333 N.3     1  UNL1       -0.2726
     20 C         139.7074  137.7462  163.0727 C.3     1  UNL1        0.0721
     21 C         140.8329  137.2195  163.9129 C.3     1  UNL1        0.0174
     22 C         142.1595  137.9196  163.9136 C.3     1  UNL1        0.0031
     23 C         142.3606  139.1464  163.0741 C.3     1  UNL1        0.0204
     24 C         141.2351  139.6730  162.2340 C.3     1  UNL1        0.0724
     25 C         143.6872  139.8464  163.0748 C.3     1  UNL1        0.0277
     26 C         143.7757  141.2852  163.4897 C.ar    1  UNL1       -0.0220
     27 C         143.9135  142.3583  162.4507 C.ar    1  UNL1       -0.0020
     28 C         144.0020  143.7971  162.8656 C.ar    1  UNL1        0.0293
     29 C         143.9527  144.1628  164.3195 C.ar    1  UNL1        0.1401
     30 F         144.0413  145.6015  164.7344 F       1  UNL1       -0.2042
     31 C         143.8150  143.0896  165.3585 C.ar    1  UNL1        0.0293
     32 C         143.7264  141.6509  164.9436 C.ar    1  UNL1       -0.0020
@<TRIPOS>BOND
     1    14    15    1
     2    15    16    2
     3    15     8    1
     4     8     9   ar
     5     9    10   ar
     6    10    11   ar
     7    11    12   ar
     8    12     2    1
     9     2     3   am
    10     3     4    2
    11     3     5   am
    12     5     1    1
    13     1    17    1
    14    17    18    1
    15    18    19    1
    16    19    20    1
    17    20    21    1
    18    21    22    1
    19    22    23    1
    20    23    25    1
    21    25    26    1
    22    26    27   ar
    23    27    28   ar
    24    28    29   ar
    25    29    30    1
    26    29    31   ar
    27    31    32   ar
    28    23    24    1
    29    12    13   ar
    30    13     8   ar
    31    24    19    1
    32    32    26   ar
    33     2     6    1
    34     5     7    1
@<TRIPOS>MOLECULE
*****
 32 34 0 0 0
SMALL
GASTEIGER

@<TRIPOS>ATOM
      1 C         142.3191  143.3234  159.2734 C.3     1  UNL1        0.0924
      2 N         141.5773  140.5169  161.9795 N.am    1  UNL1       -0.2683
      3 C         142.1113  141.7652  161.3420 C.2     1  UNL1        0.3045
      4 O         142.9715  142.7036  162.1353 O.2     1  UNL1       -0.2525
      5 N         141.7851  142.0751  159.9110 N.am    1  UNL1       -0.2887
      6 H         141.0127  139.9010  161.4588 H       1  UNL1        0.1564
      7 H         141.2205  141.4592  159.3903 H       1  UNL1        0.1510
      8 C         141.9765  140.9217  165.9072 C.ar    1  UNL1        0.0359
      9 C         142.5559  139.5872  166.2723 C.ar    1  UNL1        0.0029
     10 C         142.8091  138.5626  165.2065 C.ar    1  UNL1        0.0014
     11 C         142.4829  138.8725  163.7756 C.ar    1  UNL1        0.0147
     12 C         141.9035  140.2070  163.4105 C.ar    1  UNL1        0.0517
     13 C         141.6503  141.2316  164.4763 C.ar    1  UNL1        0.0176
     14 C         140.4634  142.7600  166.9471 C.3     1  UNL1        0.0773
     15 C         141.7233  141.9464  166.9731 C.2     1  UNL1        0.1735
     16 O         142.7299  142.1574  168.0649 O.2     1  UNL1       -0.2913
     17 C         141.4629  144.5528  159.1990 C.3     1  UNL1        0.0386
     18 C         140.0062  144.4746  159.5482 C.3     1  UNL1        0.0738
     19 N         139.5862  144.2880  160.9761 N.3     1  UNL1       -0.2726
     20 C         140.0778  145.2331  162.0320 C.3     1  UNL1        0.0721
     21 C         139.6579  145.0466  163.4599 C.3     1  UNL1        0.0174
     22 C         138.7464  143.9148  163.8319 C.3     1  UNL1        0.0031
     23 C         138.2548  142.9696  162.7758 C.3     1  UNL1        0.0204
     24 C         138.6748  143.1562  161.3480 C.3     1  UNL1        0.0724
     25 C         137.3433  141.8379  163.1478 C.3     1  UNL1        0.0277
     26 C         137.9151  140.5618  163.6907 C.ar    1  UNL1       -0.0220
     27 C         138.2442  139.4319  162.7606 C.ar    1  UNL1       -0.0020
     28 C         138.8160  138.1558  163.3036 C.ar    1  UNL1        0.0293
     29 C         139.0587  138.0097  164.7766 C.ar    1  UNL1        0.1401
     30 F         139.6304  136.7336  165.3195 F       1  UNL1       -0.2042
     31 C         138.7296  139.1396  165.7067 C.ar    1  UNL1        0.0293
     32 C         138.1578  140.4156  165.1637 C.ar    1  UNL1       -0.0020
@<TRIPOS>BOND
     1    14    15    1
     2    15    16    2
     3    15     8    1
     4     8     9   ar
     5     9    10   ar
     6    10    11   ar
     7    11    12   ar
     8    12     2    1
     9     2     3   am
    10     3     4    2
    11     3     5   am
    12     5     1    1
    13     1    17    1
    14    17    18    1
    15    18    19    1
    16    19    20    1
    17    20    21    1
    18    21    22    1
    19    22    23    1
    20    23    25    1
    21    25    26    1
    22    26    27   ar
    23    27    28   ar
    24    28    29   ar
    25    29    30    1
    26    29    31   ar
    27    31    32   ar
    28    23    24    1
    29    12    13   ar
    30    13     8   ar
    31    24    19    1
    32    32    26   ar
    33     2     6    1
    34     5     7    1
@<TRIPOS>MOLECULE
*****
 32 34 0 0 0
SMALL
GASTEIGER

@<TRIPOS>ATOM
      1 C         139.1140  142.6992  158.7109 C.3     1  UNL1        0.0924
      2 N         137.9843  142.5719  162.5132 N.am    1  UNL1       -0.2683
      3 C         138.7903  142.3590  161.2662 C.2     1  UNL1        0.3045
      4 O         140.0785  141.5929  161.3274 O.2     1  UNL1       -0.2525
      5 N         138.3080  142.9121  159.9579 N.am    1  UNL1       -0.2887
      6 H         137.1388  143.0746  162.4730 H       1  UNL1        0.1564
      7 H         137.4626  143.4149  159.9177 H       1  UNL1        0.1510
      8 C         138.5918  140.0643  165.5287 C.ar    1  UNL1        0.0359
      9 C         139.4309  140.9124  166.4379 C.ar    1  UNL1        0.0029
     10 C         139.7878  142.3136  166.0389 C.ar    1  UNL1        0.0014
     11 C         139.3056  142.8668  164.7307 C.ar    1  UNL1        0.0147
     12 C         138.4665  142.0187  163.8215 C.ar    1  UNL1        0.0517
     13 C         138.1096  140.6175  164.2205 C.ar    1  UNL1        0.0176
     14 C         138.8732  137.4989  165.2298 C.3     1  UNL1        0.0773
     15 C         138.2349  138.6631  165.9277 C.2     1  UNL1        0.1735
     16 O         137.2396  138.4261  167.0246 O.2     1  UNL1       -0.2913
     17 C         139.7298  143.8717  158.0067 C.3     1  UNL1        0.0386
     18 C         140.9691  144.5119  158.5586 C.3     1  UNL1        0.0738
     19 N         141.0802  144.7864  160.0290 N.3     1  UNL1       -0.2726
     20 C         140.0525  145.6388  160.7125 C.3     1  UNL1        0.0721
     21 C         140.1635  145.9134  162.1831 C.3     1  UNL1        0.0174
     22 C         141.3023  145.3356  162.9700 C.3     1  UNL1        0.0031
     23 C         142.3301  144.4832  162.2864 C.3     1  UNL1        0.0204
     24 C         142.2190  144.2086  160.8160 C.3     1  UNL1        0.0724
     25 C         143.4689  143.9054  163.0733 C.3     1  UNL1        0.0277
     26 C         143.2446  142.7074  163.9478 C.ar    1  UNL1       -0.0220
     27 C         143.5006  142.7972  165.4231 C.ar    1  UNL1       -0.0020
     28 C         143.2764  141.5993  166.2975 C.ar    1  UNL1        0.0293
     29 C         142.7962  140.3115  165.6967 C.ar    1  UNL1        0.1401
     30 F         142.5719  139.1135  166.5711 F       1  UNL1       -0.2042
     31 C         142.5402  140.2216  164.2214 C.ar    1  UNL1        0.0293
     32 C         142.7645  141.4196  163.3470 C.ar    1  UNL1       -0.0020
@<TRIPOS>BOND
     1    14    15    1
     2    15    16    2
     3    15     8    1
     4     8     9   ar
     5     9    10   ar
     6    10    11   ar
     7    11    12   ar
     8    12     2    1
     9     2     3   am
    10     3     4    2
    11     3     5   am
    12     5     1    1
    13     1    17    1
    14    17    18    1
    15    18    19    1
    16    19    20    1
    17    20    21    1
    18    21    22    1
    19    22    23    1
    20    23    25    1
    21    25    26    1
    22    26    27   ar
    23    27    28   ar
    24    28    29   ar
    25    29    30    1
    26    29    31   ar
    27    31    32   ar
    28    23    24    1
    29    12    13   ar
    30    13     8   ar
    31    24    19    1
    32    32    26   ar
    33     2     6    1
    34     5     7    1
@<TRIPOS>MOLECULE
*****
 32 34 0 0 0
SMALL
GASTEIGER

@<TRIPOS>ATOM
      1 C         139.8025  144.0561  160.1203 C.3     1  UNL1        0.0924
      2 N         137.8492  141.5230  162.4693 N.am    1  UNL1       -0.2683
      3 C         138.9587  142.1678  161.6928 C.2     1  UNL1        0.3045
      4 O         140.3340  141.5694  161.7122 O.2     1  UNL1       -0.2525
      5 N         138.6930  143.4112  160.8968 N.am    1  UNL1       -0.2887
      6 H         136.9465  141.9157  162.4566 H       1  UNL1        0.1564
      7 H         137.7903  143.8040  160.8841 H       1  UNL1        0.1510
      8 C         138.4253  139.1000  165.5592 C.ar    1  UNL1        0.0359
      9 C         138.6464  137.7930  164.8572 C.ar    1  UNL1        0.0029
     10 C         138.6017  137.7293  163.3592 C.ar    1  UNL1        0.0014
     11 C         138.3360  138.9726  162.5633 C.ar    1  UNL1        0.0147
     12 C         138.1149  140.2796  163.2653 C.ar    1  UNL1        0.0517
     13 C         138.1595  140.3433  164.7633 C.ar    1  UNL1        0.0176
     14 C         139.5359  139.9662  167.7423 C.3     1  UNL1        0.0773
     15 C         138.4699  139.1637  167.0572 C.2     1  UNL1        0.1735
     16 O         137.4484  138.4249  167.8701 O.2     1  UNL1       -0.2913
     17 C         140.8503  144.8574  160.8343 C.3     1  UNL1        0.0386
     18 C         142.2826  144.4124  160.8076 C.3     1  UNL1        0.0738
     19 N         143.0034  144.1272  162.0918 N.3     1  UNL1       -0.2726
     20 C         143.1388  145.2011  163.1302 C.3     1  UNL1        0.0721
     21 C         143.8597  144.9161  164.4144 C.3     1  UNL1        0.0174
     22 C         144.4452  143.5571  164.6601 C.3     1  UNL1        0.0031
     23 C         144.3097  142.4831  163.6216 C.3     1  UNL1        0.0204
     24 C         143.5889  142.7682  162.3375 C.3     1  UNL1        0.0724
     25 C         144.8951  141.1241  163.8673 C.3     1  UNL1        0.0277
     26 C         143.9919  139.9432  164.0663 C.ar    1  UNL1       -0.0220
     27 C         143.5855  139.5348  165.4512 C.ar    1  UNL1       -0.0020
     28 C         142.6822  138.3538  165.6502 C.ar    1  UNL1        0.0293
     29 C         142.1853  137.5813  164.4643 C.ar    1  UNL1        0.1401
     30 F         141.2821  136.4005  164.6632 F       1  UNL1       -0.2042
     31 C         142.5918  137.9898  163.0793 C.ar    1  UNL1        0.0293
     32 C         143.4950  139.1707  162.8804 C.ar    1  UNL1       -0.0020
@<TRIPOS>BOND
     1    14    15    1
     2    15    16    2
     3    15     8    1
     4     8     9   ar
     5     9    10   ar
     6    10    11   ar
     7    11    12   ar
     8    12     2    1
     9     2     3   am
    10     3     4    2
    11     3     5   am
    12     5     1    1
    13     1    17    1
    14    17    18    1
    15    18    19    1
    16    19    20    1
    17    20    21    1
    18    21    22    1
    19    22    23    1
    20    23    25    1
    21    25    26    1
    22    26    27   ar
    23    27    28   ar
    24    28    29   ar
    25    29    30    1
    26    29    31   ar
    27    31    32   ar
    28    23    24    1
    29    12    13   ar
    30    13     8   ar
    31    24    19    1
    32    32    26   ar
    33     2     6    1
    34     5     7    1
