@<TRIPOS>MOLECULE
*****
 28 31 0 0 0
SMALL
GASTEIGER

@<TRIPOS>ATOM
      1 C         138.5194  137.7028  163.2431 C.3     1  UNL1        0.0420
      2 C         138.8710  138.8108  164.1912 C.3     1  UNL1        0.1909
      3 O         139.4268  140.1006  163.6645 O.3     1  UNL1       -0.3501
      4 C         139.7784  141.2085  164.6126 C.3     1  UNL1        0.1141
      5 C         140.1301  142.3164  165.5607 C.3     1  UNL1        0.0463
      6 C         140.6858  143.6062  165.0340 C.3     1  UNL1        0.0746
      7 N         140.8899  143.7881  163.5591 N.3     1  UNL1       -0.2722
      8 C         140.5383  142.6803  162.6110 C.3     1  UNL1        0.0746
      9 C         139.9825  141.3905  163.1377 C.3     1  UNL1        0.0463
     10 C         139.5743  141.0265  166.0875 C.3     1  UNL1        0.1209
     11 N         139.0185  139.7367  166.6142 N.am    1  UNL1       -0.2711
     12 C         138.6669  138.6288  165.6661 C.2     1  UNL1        0.2531
     13 O         138.1111  137.3389  166.1928 O.2     1  UNL1       -0.2722
     14 C         141.4457  145.0780  163.0324 C.3     1  UNL1        0.0768
     15 C         142.9301  145.2770  162.9502 C.3     1  UNL1        0.0437
     16 C         143.8534  144.1040  163.0972 C.ar    1  UNL1       -0.0208
     17 C         144.3206  143.3602  161.8812 C.ar    1  UNL1       -0.0042
     18 C         145.2439  142.1873  162.0283 C.ar    1  UNL1       -0.0003
     19 C         145.6999  141.7580  163.3913 C.ar    1  UNL1       -0.0000
     20 C         145.2327  142.5017  164.6072 C.ar    1  UNL1       -0.0003
     21 C         144.3095  143.6747  164.4602 C.ar    1  UNL1       -0.0042
     22 C         138.8144  139.5547  168.0891 C.3     1  UNL1        0.1203
     23 C         139.7952  140.1423  169.0601 C.ar    1  UNL1       -0.0023
     24 C         141.2024  139.6253  169.1101 C.ar    1  UNL1       -0.0026
     25 C         142.1832  140.2128  170.0811 C.ar    1  UNL1       -0.0003
     26 C         141.7568  141.3174  171.0020 C.ar    1  UNL1       -0.0000
     27 C         140.3496  141.8344  170.9519 C.ar    1  UNL1       -0.0003
     28 C         139.3688  141.2469  169.9809 C.ar    1  UNL1       -0.0026
@<TRIPOS>BOND
     1     1     2    1
     2     2     3    1
     3     3     4    1
     4     4     5    1
     5     5     6    1
     6     6     7    1
     7     7    14    1
     8    14    15    1
     9    15    16    1
    10    16    17   ar
    11    17    18   ar
    12    18    19   ar
    13    19    20   ar
    14    20    21   ar
    15     7     8    1
    16     8     9    1
    17     4    10    1
    18    10    11    1
    19    11    22    1
    20    22    23    1
    21    23    24   ar
    22    24    25   ar
    23    25    26   ar
    24    26    27   ar
    25    27    28   ar
    26    11    12   am
    27    12    13    2
    28    12     2    1
    29     9     4    1
    30    28    23   ar
    31    21    16   ar
@<TRIPOS>MOLECULE
*****
 28 31 0 0 0
SMALL
GASTEIGER

@<TRIPOS>ATOM
      1 C         137.9209  142.7648  157.5894 C.3     1  UNL1        0.0420
      2 C         138.4201  142.2925  158.9227 C.3     1  UNL1        0.1909
      3 O         139.1950  143.2244  159.8064 O.3     1  UNL1       -0.3501
      4 C         139.6943  142.7521  161.1398 C.3     1  UNL1        0.1141
      5 C         140.1935  142.2798  162.4731 C.3     1  UNL1        0.0463
      6 C         140.9684  143.2117  163.3568 C.3     1  UNL1        0.0746
      7 N         141.2441  144.6159  162.9072 N.3     1  UNL1       -0.2722
      8 C         140.7450  145.0882  161.5739 C.3     1  UNL1        0.0746
      9 C         139.9700  144.1563  160.6902 C.3     1  UNL1        0.0463
     10 C         139.4185  141.3479  161.5894 C.3     1  UNL1        0.1209
     11 N         138.6435  140.4160  160.7056 N.am    1  UNL1       -0.2711
     12 C         138.1443  140.8883  159.3723 C.2     1  UNL1        0.2531
     13 O         137.3694  139.9564  158.4885 O.2     1  UNL1       -0.2722
     14 C         142.0191  145.5478  163.7910 C.3     1  UNL1        0.0768
     15 C         143.5031  145.3839  163.9355 C.3     1  UNL1        0.0437
     16 C         144.1427  144.0577  163.6488 C.ar    1  UNL1       -0.0208
     17 C         144.4633  143.6695  162.2359 C.ar    1  UNL1       -0.0042
     18 C         145.1028  142.3433  161.9492 C.ar    1  UNL1       -0.0003
     19 C         145.4217  141.4053  163.0755 C.ar    1  UNL1       -0.0000
     20 C         145.1010  141.7935  164.4884 C.ar    1  UNL1       -0.0003
     21 C         144.4615  143.1197  164.7751 C.ar    1  UNL1       -0.0042
     22 C         138.3678  139.0118  161.1552 C.3     1  UNL1        0.1203
     23 C         139.1608  138.4150  162.2799 C.ar    1  UNL1       -0.0023
     24 C         140.5278  137.8551  162.0193 C.ar    1  UNL1       -0.0026
     25 C         141.3208  137.2583  163.1440 C.ar    1  UNL1       -0.0003
     26 C         140.7468  137.2215  164.5293 C.ar    1  UNL1       -0.0000
     27 C         139.3799  137.7814  164.7899 C.ar    1  UNL1       -0.0003
     28 C         138.5869  138.3781  163.6653 C.ar    1  UNL1       -0.0026
@<TRIPOS>BOND
     1     1     2    1
     2     2     3    1
     3     3     4    1
     4     4     5    1
     5     5     6    1
     6     6     7    1
     7     7    14    1
     8    14    15    1
     9    15    16    1
    10    16    17   ar
    11    17    18   ar
    12    18    19   ar
    13    19    20   ar
    14    20    21   ar
    15     7     8    1
    16     8     9    1
    17     4    10    1
    18    10    11    1
    19    11    22    1
    20    22    23    1
    21    23    24   ar
    22    24    25   ar
    23    25    26   ar
    24    26    27   ar
    25    27    28   ar
    26    11    12   am
    27    12    13    2
    28    12     2    1
    29     9     4    1
    30    28    23   ar
    31    21    16   ar
@<TRIPOS>MOLECULE
*****
 28 31 0 0 0
SMALL
GASTEIGER

@<TRIPOS>ATOM
      1 C         138.5564  137.4411  163.6437 C.3     1  UNL1        0.0420
      2 C         139.3369  138.4037  164.4889 C.3     1  UNL1        0.1909
      3 O         140.5135  139.1295  163.9067 O.3     1  UNL1       -0.3501
      4 C         141.2940  140.0921  164.7519 C.3     1  UNL1        0.1141
      5 C         142.0745  141.0547  165.5970 C.3     1  UNL1        0.0463
      6 C         143.2511  141.7804  165.0148 C.3     1  UNL1        0.0746
      7 N         143.6472  141.5436  163.5876 N.3     1  UNL1       -0.2722
      8 C         142.8668  140.5810  162.7425 C.3     1  UNL1        0.0746
      9 C         141.6902  139.8552  163.3246 C.3     1  UNL1        0.0463
     10 C         140.8979  140.3290  166.1791 C.3     1  UNL1        0.1209
     11 N         139.7212  139.6032  166.7612 N.am    1  UNL1       -0.2711
     12 C         138.9408  138.6406  165.9161 C.2     1  UNL1        0.2531
     13 O         137.7641  137.9148  166.4982 O.2     1  UNL1       -0.2722
     14 C         144.8239  142.2693  163.0055 C.3     1  UNL1        0.0768
     15 C         144.6332  143.6082  162.3567 C.3     1  UNL1        0.0437
     16 C         143.2783  144.2520  162.3495 C.ar    1  UNL1       -0.0208
     17 C         142.8286  145.0664  163.5261 C.ar    1  UNL1       -0.0042
     18 C         141.4738  145.7102  163.5188 C.ar    1  UNL1       -0.0003
     19 C         140.5687  145.5395  162.3348 C.ar    1  UNL1       -0.0000
     20 C         141.0184  144.7251  161.1582 C.ar    1  UNL1       -0.0003
     21 C         142.3732  144.0813  161.1655 C.ar    1  UNL1       -0.0042
     22 C         139.3251  139.8400  168.1884 C.3     1  UNL1        0.1203
     23 C         140.2398  140.5976  169.1048 C.ar    1  UNL1       -0.0023
     24 C         141.2886  139.8668  169.8897 C.ar    1  UNL1       -0.0026
     25 C         142.2032  140.6242  170.8060 C.ar    1  UNL1       -0.0003
     26 C         142.0690  142.1124  170.9375 C.ar    1  UNL1       -0.0000
     27 C         141.0202  142.8431  170.1526 C.ar    1  UNL1       -0.0003
     28 C         140.1056  142.0857  169.2363 C.ar    1  UNL1       -0.0026
@<TRIPOS>BOND
     1     1     2    1
     2     2     3    1
     3     3     4    1
     4     4     5    1
     5     5     6    1
     6     6     7    1
     7     7    14    1
     8    14    15    1
     9    15    16    1
    10    16    17   ar
    11    17    18   ar
    12    18    19   ar
    13    19    20   ar
    14    20    21   ar
    15     7     8    1
    16     8     9    1
    17     4    10    1
    18    10    11    1
    19    11    22    1
    20    22    23    1
    21    23    24   ar
    22    24    25   ar
    23    25    26   ar
    24    26    27   ar
    25    27    28   ar
    26    11    12   am
    27    12    13    2
    28    12     2    1
    29     9     4    1
    30    28    23   ar
    31    21    16   ar
@<TRIPOS>MOLECULE
*****
 28 31 0 0 0
SMALL
GASTEIGER

@<TRIPOS>ATOM
      1 C         140.0025  141.2029  169.8844 C.3     1  UNL1        0.0420
      2 C         140.5934  141.1492  168.5067 C.3     1  UNL1        0.1909
      3 O         139.9576  140.2944  167.4507 O.3     1  UNL1       -0.3501
      4 C         140.5486  140.2407  166.0730 C.3     1  UNL1        0.1141
      5 C         141.1395  140.1871  164.6954 C.3     1  UNL1        0.0463
      6 C         140.5037  139.3323  163.6394 C.3     1  UNL1        0.0746
      7 N         139.2770  138.5312  163.9610 N.3     1  UNL1       -0.2722
      8 C         138.6861  138.5849  165.3386 C.3     1  UNL1        0.0746
      9 C         139.3219  139.4396  166.3946 C.3     1  UNL1        0.0463
     10 C         141.7753  141.0419  165.7513 C.3     1  UNL1        0.1209
     11 N         142.4110  141.8966  166.8074 N.am    1  UNL1       -0.2711
     12 C         141.8201  141.9503  168.1850 C.2     1  UNL1        0.2531
     13 O         142.4559  142.8051  169.2411 O.2     1  UNL1       -0.2722
     14 C         138.6413  137.6764  162.9049 C.3     1  UNL1        0.0768
     15 C         137.7613  138.3016  161.8634 C.3     1  UNL1        0.0437
     16 C         138.0003  139.7180  161.4315 C.ar    1  UNL1       -0.0208
     17 C         138.6474  139.9994  160.1078 C.ar    1  UNL1       -0.0042
     18 C         138.8864  141.4158  159.6759 C.ar    1  UNL1       -0.0003
     19 C         138.4783  142.5509  160.5676 C.ar    1  UNL1       -0.0000
     20 C         137.8312  142.2695  161.8913 C.ar    1  UNL1       -0.0003
     21 C         137.5922  140.8531  162.3232 C.ar    1  UNL1       -0.0042
     22 C         143.6377  142.6978  166.4858 C.3     1  UNL1        0.1203
     23 C         144.0208  142.9415  165.0561 C.ar    1  UNL1       -0.0023
     24 C         143.5620  144.1878  164.3587 C.ar    1  UNL1       -0.0026
     25 C         143.9450  144.4316  162.9291 C.ar    1  UNL1       -0.0003
     26 C         144.7868  143.4290  162.1969 C.ar    1  UNL1       -0.0000
     27 C         145.2456  142.1827  162.8942 C.ar    1  UNL1       -0.0003
     28 C         144.8625  141.9390  164.3238 C.ar    1  UNL1       -0.0026
@<TRIPOS>BOND
     1     1     2    1
     2     2     3    1
     3     3     4    1
     4     4     5    1
     5     5     6    1
     6     6     7    1
     7     7    14    1
     8    14    15    1
     9    15    16    1
    10    16    17   ar
    11    17    18   ar
    12    18    19   ar
    13    19    20   ar
    14    20    21   ar
    15     7     8    1
    16     8     9    1
    17     4    10    1
    18    10    11    1
    19    11    22    1
    20    22    23    1
    21    23    24   ar
    22    24    25   ar
    23    25    26   ar
    24    26    27   ar
    25    27    28   ar
    26    11    12   am
    27    12    13    2
    28    12     2    1
    29     9     4    1
    30    28    23   ar
    31    21    16   ar
@<TRIPOS>MOLECULE
*****
 28 31 0 0 0
SMALL
GASTEIGER

@<TRIPOS>ATOM
      1 C         137.2094  139.5562  160.6531 C.3     1  UNL1        0.0420
      2 C         137.9677  140.4079  161.6276 C.3     1  UNL1        0.1909
      3 O         138.0693  139.9932  163.0655 O.3     1  UNL1       -0.3501
      4 C         138.8277  140.8449  164.0400 C.3     1  UNL1        0.1141
      5 C         139.5860  141.6966  165.0144 C.3     1  UNL1        0.0463
      6 C         139.6876  141.2819  166.4523 C.3     1  UNL1        0.0746
      7 N         139.0308  140.0154  166.9158 N.3     1  UNL1       -0.2722
      8 C         138.2725  139.1637  165.9414 C.3     1  UNL1        0.0746
      9 C         138.1709  139.5785  164.5035 C.3     1  UNL1        0.0463
     10 C         139.4844  142.1113  163.5765 C.3     1  UNL1        0.1209
     11 N         139.3828  142.5261  162.1385 N.am    1  UNL1       -0.2711
     12 C         138.6245  141.6744  161.1641 C.2     1  UNL1        0.2531
     13 O         138.5229  142.0891  159.7261 O.2     1  UNL1       -0.2722
     14 C         139.1325  139.6007  168.3538 C.3     1  UNL1        0.0768
     15 C         139.3006  140.6386  169.4236 C.3     1  UNL1        0.0437
     16 C         140.6426  141.2681  169.6536 C.ar    1  UNL1       -0.0208
     17 C         141.8729  140.4120  169.7096 C.ar    1  UNL1       -0.0042
     18 C         143.2148  141.0415  169.9396 C.ar    1  UNL1       -0.0003
     19 C         143.3263  142.5272  170.1136 C.ar    1  UNL1       -0.0000
     20 C         142.0960  143.3834  170.0576 C.ar    1  UNL1       -0.0003
     21 C         140.7541  142.7538  169.8276 C.ar    1  UNL1       -0.0042
     22 C         140.0395  143.7925  161.6750 C.3     1  UNL1        0.1203
     23 C         141.3827  144.1827  162.2170 C.ar    1  UNL1       -0.0023
     24 C         141.4807  145.1890  163.3251 C.ar    1  UNL1       -0.0026
     25 C         142.8238  145.5792  163.8672 C.ar    1  UNL1       -0.0003
     26 C         144.0688  144.9631  163.3012 C.ar    1  UNL1       -0.0000
     27 C         143.9707  143.9569  162.1931 C.ar    1  UNL1       -0.0003
     28 C         142.6277  143.5667  161.6510 C.ar    1  UNL1       -0.0026
@<TRIPOS>BOND
     1     1     2    1
     2     2     3    1
     3     3     4    1
     4     4     5    1
     5     5     6    1
     6     6     7    1
     7     7    14    1
     8    14    15    1
     9    15    16    1
    10    16    17   ar
    11    17    18   ar
    12    18    19   ar
    13    19    20   ar
    14    20    21   ar
    15     7     8    1
    16     8     9    1
    17     4    10    1
    18    10    11    1
    19    11    22    1
    20    22    23    1
    21    23    24   ar
    22    24    25   ar
    23    25    26   ar
    24    26    27   ar
    25    27    28   ar
    26    11    12   am
    27    12    13    2
    28    12     2    1
    29     9     4    1
    30    28    23   ar
    31    21    16   ar
@<TRIPOS>MOLECULE
*****
 28 31 0 0 0
SMALL
GASTEIGER

@<TRIPOS>ATOM
      1 C         144.5000  143.0715  162.5643 C.3     1  UNL1        0.0420
      2 C         143.9954  141.6668  162.4151 C.3     1  UNL1        0.1909
      3 O         143.8733  141.0547  161.0511 O.3     1  UNL1       -0.3501
      4 C         143.3688  139.6499  160.9018 C.3     1  UNL1        0.1141
      5 C         142.8643  138.2453  160.7526 C.3     1  UNL1        0.0463
      6 C         142.7422  137.6332  159.3887 C.3     1  UNL1        0.0746
      7 N         143.1245  138.4258  158.1739 N.3     1  UNL1       -0.2722
      8 C         143.6290  139.8305  158.3232 C.3     1  UNL1        0.0746
      9 C         143.7511  140.4426  159.6871 C.3     1  UNL1        0.0463
     10 C         142.9864  138.8573  162.1166 C.3     1  UNL1        0.1209
     11 N         143.1086  139.4695  163.4806 N.am    1  UNL1       -0.2711
     12 C         143.6131  140.8741  163.6298 C.2     1  UNL1        0.2531
     13 O         143.7353  141.4863  164.9938 O.2     1  UNL1       -0.2722
     14 C         143.0023  137.8137  156.8099 C.3     1  UNL1        0.0768
     15 C         141.8598  136.8923  156.5010 C.3     1  UNL1        0.0437
     16 C         142.1074  135.4233  156.3250 C.ar    1  UNL1       -0.0208
     17 C         141.3347  134.6503  155.2977 C.ar    1  UNL1       -0.0042
     18 C         141.5823  133.1814  155.1218 C.ar    1  UNL1       -0.0003
     19 C         142.6025  132.4855  155.9731 C.ar    1  UNL1       -0.0000
     20 C         143.3752  133.2585  157.0004 C.ar    1  UNL1       -0.0003
     21 C         143.1276  134.7274  157.1763 C.ar    1  UNL1       -0.0042
     22 C         142.7263  138.6769  164.6953 C.3     1  UNL1        0.1203
     23 C         141.2946  138.6309  165.1409 C.ar    1  UNL1       -0.0023
     24 C         140.3677  137.5932  164.5805 C.ar    1  UNL1       -0.0026
     25 C         138.9362  137.5473  165.0260 C.ar    1  UNL1       -0.0003
     26 C         138.4316  138.5390  166.0318 C.ar    1  UNL1       -0.0000
     27 C         139.3585  139.5767  166.5922 C.ar    1  UNL1       -0.0003
     28 C         140.7900  139.6226  166.1467 C.ar    1  UNL1       -0.0026
@<TRIPOS>BOND
     1     1     2    1
     2     2     3    1
     3     3     4    1
     4     4     5    1
     5     5     6    1
     6     6     7    1
     7     7    14    1
     8    14    15    1
     9    15    16    1
    10    16    17   ar
    11    17    18   ar
    12    18    19   ar
    13    19    20   ar
    14    20    21   ar
    15     7     8    1
    16     8     9    1
    17     4    10    1
    18    10    11    1
    19    11    22    1
    20    22    23    1
    21    23    24   ar
    22    24    25   ar
    23    25    26   ar
    24    26    27   ar
    25    27    28   ar
    26    11    12   am
    27    12    13    2
    28    12     2    1
    29     9     4    1
    30    28    23   ar
    31    21    16   ar
@<TRIPOS>MOLECULE
*****
 28 31 0 0 0
SMALL
GASTEIGER

@<TRIPOS>ATOM
      1 C         143.7372  138.2343  166.5305 C.3     1  UNL1        0.0420
      2 C         142.7385  138.6798  165.5037 C.3     1  UNL1        0.1909
      3 O         143.0087  138.4515  164.0461 O.3     1  UNL1       -0.3501
      4 C         142.0100  138.8969  163.0193 C.3     1  UNL1        0.1141
      5 C         141.0112  139.3424  161.9927 C.3     1  UNL1        0.0463
      6 C         141.2815  139.1141  160.5350 C.3     1  UNL1        0.0746
      7 N         142.5505  138.4403  160.1040 N.3     1  UNL1       -0.2722
      8 C         143.5492  137.9949  161.1307 C.3     1  UNL1        0.0746
      9 C         143.2789  138.2232  162.5883 C.3     1  UNL1        0.0463
     10 C         140.7410  139.5707  163.4503 C.3     1  UNL1        0.1209
     11 N         140.4707  139.7989  164.9081 N.am    1  UNL1       -0.2711
     12 C         141.4695  139.3535  165.9347 C.2     1  UNL1        0.2531
     13 O         141.1993  139.5818  167.3925 O.2     1  UNL1       -0.2722
     14 C         142.8207  138.2120  158.6463 C.3     1  UNL1        0.0768
     15 C         141.6999  137.8261  157.7272 C.3     1  UNL1        0.0437
     16 C         141.9406  136.8381  156.6244 C.ar    1  UNL1       -0.0208
     17 C         143.3101  136.2614  156.4199 C.ar    1  UNL1       -0.0042
     18 C         143.5508  135.2735  155.3171 C.ar    1  UNL1       -0.0003
     19 C         142.4220  134.8623  154.4189 C.ar    1  UNL1       -0.0000
     20 C         141.0525  135.4390  154.6235 C.ar    1  UNL1       -0.0003
     21 C         140.8118  136.4269  155.7262 C.ar    1  UNL1       -0.0042
     22 C         139.2018  140.4727  165.3391 C.3     1  UNL1        0.1203
     23 C         138.8895  141.8599  164.8614 C.ar    1  UNL1       -0.0023
     24 C         139.5263  143.0436  165.5272 C.ar    1  UNL1       -0.0026
     25 C         139.2141  144.4307  165.0495 C.ar    1  UNL1       -0.0003
     26 C         138.2650  144.6342  163.9060 C.ar    1  UNL1       -0.0000
     27 C         137.6281  143.4506  163.2401 C.ar    1  UNL1       -0.0003
     28 C         137.9404  142.0634  163.7178 C.ar    1  UNL1       -0.0026
@<TRIPOS>BOND
     1     1     2    1
     2     2     3    1
     3     3     4    1
     4     4     5    1
     5     5     6    1
     6     6     7    1
     7     7    14    1
     8    14    15    1
     9    15    16    1
    10    16    17   ar
    11    17    18   ar
    12    18    19   ar
    13    19    20   ar
    14    20    21   ar
    15     7     8    1
    16     8     9    1
    17     4    10    1
    18    10    11    1
    19    11    22    1
    20    22    23    1
    21    23    24   ar
    22    24    25   ar
    23    25    26   ar
    24    26    27   ar
    25    27    28   ar
    26    11    12   am
    27    12    13    2
    28    12     2    1
    29     9     4    1
    30    28    23   ar
    31    21    16   ar
@<TRIPOS>MOLECULE
*****
 28 31 0 0 0
SMALL
GASTEIGER

@<TRIPOS>ATOM
      1 C         144.3265  141.8771  159.8775 C.3     1  UNL1        0.0420
      2 C         143.2852  142.9563  159.9119 C.3     1  UNL1        0.1909
      3 O         142.6884  143.4637  158.6328 O.3     1  UNL1       -0.3501
      4 C         141.6471  144.5429  158.6672 C.3     1  UNL1        0.1141
      5 C         140.6058  145.6220  158.7017 C.3     1  UNL1        0.0463
      6 C         140.0090  146.1295  157.4226 C.3     1  UNL1        0.0746
      7 N         140.4534  145.5578  156.1089 N.3     1  UNL1       -0.2722
      8 C         141.4947  144.4787  156.0744 C.3     1  UNL1        0.0746
      9 C         142.0915  143.9712  157.3536 C.3     1  UNL1        0.0463
     10 C         141.2026  145.1146  159.9809 C.3     1  UNL1        0.1209
     11 N         141.7995  144.6071  161.2601 N.am    1  UNL1       -0.2711
     12 C         142.8408  143.5280  161.2256 C.2     1  UNL1        0.2531
     13 O         143.4377  143.0205  162.5047 O.2     1  UNL1       -0.2722
     14 C         139.8565  146.0653  154.8297 C.3     1  UNL1        0.0768
     15 C         140.4281  147.2833  154.1668 C.3     1  UNL1        0.0437
     16 C         139.8554  148.6375  154.4640 C.ar    1  UNL1       -0.0208
     17 C         140.2553  149.8200  153.6323 C.ar    1  UNL1       -0.0042
     18 C         139.6826  151.1741  153.9296 C.ar    1  UNL1       -0.0003
     19 C         138.7099  151.3457  155.0585 C.ar    1  UNL1       -0.0000
     20 C         138.3100  150.1632  155.8902 C.ar    1  UNL1       -0.0003
     21 C         138.8828  148.8091  155.5930 C.ar    1  UNL1       -0.0042
     22 C         141.3551  145.1788  162.5737 C.3     1  UNL1        0.1203
     23 C         140.1911  144.5725  163.3002 C.ar    1  UNL1       -0.0023
     24 C         140.4156  143.8105  164.5725 C.ar    1  UNL1       -0.0026
     25 C         139.2517  143.2042  165.2990 C.ar    1  UNL1       -0.0003
     26 C         137.8634  143.3600  164.7530 C.ar    1  UNL1       -0.0000
     27 C         137.6389  144.1219  163.4806 C.ar    1  UNL1       -0.0003
     28 C         138.8027  144.7282  162.7542 C.ar    1  UNL1       -0.0026
@<TRIPOS>BOND
     1     1     2    1
     2     2     3    1
     3     3     4    1
     4     4     5    1
     5     5     6    1
     6     6     7    1
     7     7    14    1
     8    14    15    1
     9    15    16    1
    10    16    17   ar
    11    17    18   ar
    12    18    19   ar
    13    19    20   ar
    14    20    21   ar
    15     7     8    1
    16     8     9    1
    17     4    10    1
    18    10    11    1
    19    11    22    1
    20    22    23    1
    21    23    24   ar
    22    24    25   ar
    23    25    26   ar
    24    26    27   ar
    25    27    28   ar
    26    11    12   am
    27    12    13    2
    28    12     2    1
    29     9     4    1
    30    28    23   ar
    31    21    16   ar
@<TRIPOS>MOLECULE
*****
 28 31 0 0 0
SMALL
GASTEIGER

@<TRIPOS>ATOM
      1 C         142.2506  136.5776  156.9536 C.3     1  UNL1        0.0420
      2 C         142.7336  137.8197  157.6420 C.3     1  UNL1        0.1909
      3 O         142.8142  137.8643  159.1392 O.3     1  UNL1       -0.3501
      4 C         143.2971  139.1065  159.8276 C.3     1  UNL1        0.1141
      5 C         143.7800  140.3486  160.5160 C.3     1  UNL1        0.0463
      6 C         143.8606  140.3932  162.0132 C.3     1  UNL1        0.0746
      7 N         143.4583  139.1956  162.8219 N.3     1  UNL1       -0.2722
      8 C         142.9753  137.9535  162.1335 C.3     1  UNL1        0.0746
      9 C         142.8948  137.9090  160.6364 C.3     1  UNL1        0.0463
     10 C         143.6995  140.3040  159.0189 C.3     1  UNL1        0.1209
     11 N         143.6189  140.2594  157.5217 N.am    1  UNL1       -0.2711
     12 C         143.1359  139.0173  156.8333 C.2     1  UNL1        0.2531
     13 O         143.0554  138.9726  155.3361 O.2     1  UNL1       -0.2722
     14 C         143.5388  139.2403  164.3191 C.3     1  UNL1        0.0768
     15 C         142.7650  138.2531  165.1416 C.3     1  UNL1        0.0437
     16 C         141.3029  138.4716  165.3961 C.ar    1  UNL1       -0.0208
     17 C         140.2883  137.5630  164.7677 C.ar    1  UNL1       -0.0042
     18 C         138.8263  137.7816  165.0222 C.ar    1  UNL1       -0.0003
     19 C         138.3789  138.9087  165.9051 C.ar    1  UNL1       -0.0000
     20 C         139.3936  139.8173  166.5334 C.ar    1  UNL1       -0.0003
     21 C         140.8556  139.5988  166.2790 C.ar    1  UNL1       -0.0042
     22 C         144.0212  141.4569  156.7129 C.3     1  UNL1        0.1203
     23 C         145.4722  141.7290  156.4467 C.ar    1  UNL1       -0.0023
     24 C         146.1354  141.1424  155.2358 C.ar    1  UNL1       -0.0026
     25 C         147.5862  141.4145  154.9696 C.ar    1  UNL1       -0.0003
     26 C         148.3739  142.2732  155.9141 C.ar    1  UNL1       -0.0000
     27 C         147.7107  142.8598  157.1250 C.ar    1  UNL1       -0.0003
     28 C         146.2598  142.5877  157.3912 C.ar    1  UNL1       -0.0026
@<TRIPOS>BOND
     1     1     2    1
     2     2     3    1
     3     3     4    1
     4     4     5    1
     5     5     6    1
     6     6     7    1
     7     7    14    1
     8    14    15    1
     9    15    16    1
    10    16    17   ar
    11    17    18   ar
    12    18    19   ar
    13    19    20   ar
    14    20    21   ar
    15     7     8    1
    16     8     9    1
    17     4    10    1
    18    10    11    1
    19    11    22    1
    20    22    23    1
    21    23    24   ar
    22    24    25   ar
    23    25    26   ar
    24    26    27   ar
    25    27    28   ar
    26    11    12   am
    27    12    13    2
    28    12     2    1
    29     9     4    1
    30    28    23   ar
    31    21    16   ar
