@<TRIPOS>MOLECULE
*****
 36 40 0 0 0
SMALL
GASTEIGER

@<TRIPOS>ATOM
      1 C         140.3510  144.1748  164.6284 C.3     1  UNL1        0.0768
      2 N         141.7677  144.0072  164.1650 N.3     1  UNL1       -0.2724
      3 C         142.4343  144.7835  163.0681 C.3     1  UNL1        0.0721
      4 C         143.8452  144.2900  162.9424 C.3     1  UNL1        0.0187
      5 C         144.0506  143.2087  163.9615 C.3     1  UNL1        0.0178
      6 C         142.7667  143.0340  164.7171 C.3     1  UNL1        0.0721
      7 C         145.3175  142.4376  164.1857 C.3     1  UNL1        0.0077
      8 C         145.3962  140.9929  163.7900 C.3     1  UNL1        0.0459
      9 C         144.1889  140.1124  163.9219 C.ar    1  UNL1        0.0603
     10 C         143.9744  139.3168  165.1753 C.ar    1  UNL1        0.0145
     11 C         142.7672  138.4362  165.3073 C.ar    1  UNL1       -0.0003
     12 C         141.7746  138.3513  164.1859 C.ar    1  UNL1        0.0092
     13 C         141.9891  139.1469  162.9325 C.ar    1  UNL1        0.1240
     14 N         143.1964  140.0275  162.8006 N.ar    1  UNL1       -0.2356
     15 N         140.9966  139.0620  161.8111 N.pl3   1  UNL1       -0.3184
     16 C         139.7894  138.1815  161.9431 C.3     1  UNL1        0.0885
     17 C         139.5749  137.3859  163.1965 C.3     1  UNL1        0.0260
     18 C         140.5675  137.4708  164.3179 C.3     1  UNL1        0.0309
     19 H         141.1374  139.5842  160.9885 H       1  UNL1        0.1482
     20 C         139.3378  143.1055  164.3453 C.3     1  UNL1        0.0439
     21 C         139.2177  141.9244  165.2623 C.ar    1  UNL1       -0.0196
     22 C         138.3297  140.7740  164.8912 C.ar    1  UNL1       -0.0041
     23 C         138.2096  139.5930  165.8082 C.ar    1  UNL1        0.0009
     24 C         138.9776  139.5625  167.0963 C.ar    1  UNL1        0.0145
     25 C         139.8657  140.7129  167.4675 C.ar    1  UNL1        0.0477
     26 C         139.9857  141.8939  166.5505 C.ar    1  UNL1        0.0103
     27 N         140.6337  140.6824  168.7556 N.pl3   1  UNL1       -0.3028
     28 C         141.8281  139.7861  168.8955 C.3     1  UNL1        0.1231
     29 C         142.5961  139.7556  170.1836 C.3     1  UNL1        0.1636
     30 O         142.1696  140.6215  171.3318 O.3     1  UNL1       -0.3501
     31 C         140.9751  141.5178  171.1918 C.3     1  UNL1        0.1636
     32 C         140.2072  141.5483  169.9038 C.3     1  UNL1        0.1231
     33 C         138.4448  143.2172  163.1453 C.3     1  UNL1        0.0474
     34 O         140.2156  141.9957  161.6884 O.co2   1  UNL1       -0.5492
     35 C         138.9372  142.7726  161.8000 C.2     1  UNL1        0.0507
     36 O         138.1514  143.1050  160.5663 O.co2   1  UNL1       -0.5492
@<TRIPOS>UNITY_ATOM_ATTR
34 1
charge -1
@<TRIPOS>BOND
     1    34    35   ar
     2    35    36   ar
     3    35    33    1
     4    20    33    1
     5    20     1    1
     6     1     2    1
     7     2     3    1
     8     3     4    1
     9     4     5    1
    10     5     7    1
    11     7     8    1
    12     8     9    1
    13     9    10   ar
    14    10    11   ar
    15    11    12   ar
    16    12    13   ar
    17    13    14   ar
    18    13    15    1
    19    15    16    1
    20    16    17    1
    21    17    18    1
    22     5     6    1
    23    20    21    1
    24    21    22   ar
    25    22    23   ar
    26    23    24   ar
    27    24    25   ar
    28    25    27    1
    29    27    28    1
    30    28    29    1
    31    29    30    1
    32    30    31    1
    33    31    32    1
    34    25    26   ar
    35     6     2    1
    36    26    21   ar
    37    14     9   ar
    38    32    27    1
    39    18    12    1
    40    15    19    1
@<TRIPOS>MOLECULE
*****
 36 40 0 0 0
SMALL
GASTEIGER

@<TRIPOS>ATOM
      1 C         137.9660  142.8133  164.3359 C.3     1  UNL1        0.0768
      2 N         138.1008  141.4188  163.8000 N.3     1  UNL1       -0.2724
      3 C         137.6962  140.9574  162.4312 C.3     1  UNL1        0.0721
      4 C         138.0092  139.4943  162.3239 C.3     1  UNL1        0.0187
      5 C         138.6071  139.0515  163.6264 C.3     1  UNL1        0.0178
      6 C         138.6637  140.2409  164.5386 C.3     1  UNL1        0.0721
      7 C         139.0676  137.6631  163.9583 C.3     1  UNL1        0.0077
      8 C         140.4125  137.1880  163.4943 C.3     1  UNL1        0.0459
      9 C         141.6224  138.0525  163.6915 C.ar    1  UNL1        0.0603
     10 C         142.4266  137.9407  164.9528 C.ar    1  UNL1        0.0145
     11 C         143.6364  138.8051  165.1501 C.ar    1  UNL1       -0.0003
     12 C         144.0422  139.7815  164.0860 C.ar    1  UNL1        0.0092
     13 C         143.2381  139.8933  162.8247 C.ar    1  UNL1        0.1240
     14 N         142.0282  139.0288  162.6275 N.ar    1  UNL1       -0.2356
     15 N         143.6438  140.8696  161.7607 N.pl3   1  UNL1       -0.3184
     16 C         144.8536  141.7340  161.9580 C.3     1  UNL1        0.0885
     17 C         145.6578  141.6222  163.2193 C.3     1  UNL1        0.0260
     18 C         145.2520  140.6459  164.2833 C.3     1  UNL1        0.0309
     19 H         143.1160  140.9430  160.9329 H       1  UNL1        0.1482
     20 C         139.1751  143.6941  164.4473 C.3     1  UNL1        0.0439
     21 C         140.3495  143.2551  165.2709 C.ar    1  UNL1       -0.0196
     22 C         141.7345  143.3250  164.6991 C.ar    1  UNL1       -0.0041
     23 C         142.9088  142.8861  165.5227 C.ar    1  UNL1        0.0009
     24 C         142.6982  142.3773  166.9180 C.ar    1  UNL1        0.0145
     25 C         141.3132  142.3074  167.4897 C.ar    1  UNL1        0.0477
     26 C         140.1388  142.7463  166.6661 C.ar    1  UNL1        0.0103
     27 N         141.1025  141.7986  168.8850 N.pl3   1  UNL1       -0.3028
     28 C         141.8770  142.3916  170.0244 C.3     1  UNL1        0.1231
     29 C         141.6664  141.8828  171.4196 C.3     1  UNL1        0.1636
     30 O         140.6812  140.7810  171.6754 O.3     1  UNL1       -0.3501
     31 C         139.9066  140.1881  170.5359 C.3     1  UNL1        0.1636
     32 C         140.1173  140.6968  169.1408 C.3     1  UNL1        0.1231
     33 C         139.2097  145.0138  163.7351 C.3     1  UNL1        0.0474
     34 O         139.1423  146.3263  161.4939 O.co2   1  UNL1       -0.5492
     35 C         139.4138  145.0593  162.2498 C.2     1  UNL1        0.0507
     36 O         139.8893  143.8380  161.5202 O.co2   1  UNL1       -0.5492
@<TRIPOS>UNITY_ATOM_ATTR
34 1
charge -1
@<TRIPOS>BOND
     1    34    35   ar
     2    35    36   ar
     3    35    33    1
     4    20    33    1
     5    20     1    1
     6     1     2    1
     7     2     3    1
     8     3     4    1
     9     4     5    1
    10     5     7    1
    11     7     8    1
    12     8     9    1
    13     9    10   ar
    14    10    11   ar
    15    11    12   ar
    16    12    13   ar
    17    13    14   ar
    18    13    15    1
    19    15    16    1
    20    16    17    1
    21    17    18    1
    22     5     6    1
    23    20    21    1
    24    21    22   ar
    25    22    23   ar
    26    23    24   ar
    27    24    25   ar
    28    25    27    1
    29    27    28    1
    30    28    29    1
    31    29    30    1
    32    30    31    1
    33    31    32    1
    34    25    26   ar
    35     6     2    1
    36    26    21   ar
    37    14     9   ar
    38    32    27    1
    39    18    12    1
    40    15    19    1
@<TRIPOS>MOLECULE
*****
 36 40 0 0 0
SMALL
GASTEIGER

@<TRIPOS>ATOM
      1 C         138.5133  138.8046  164.2099 C.3     1  UNL1        0.0768
      2 N         138.2022  140.2264  163.8471 N.3     1  UNL1       -0.2724
      3 C         137.7854  140.7198  162.4932 C.3     1  UNL1        0.0721
      4 C         137.5788  142.2028  162.5838 C.3     1  UNL1        0.0187
      5 C         137.8680  142.6259  163.9935 C.3     1  UNL1        0.0178
      6 C         138.2532  141.4044  164.7742 C.3     1  UNL1        0.0721
      7 C         137.7862  144.0248  164.5285 C.3     1  UNL1        0.0077
      8 C         139.0369  144.7471  164.9334 C.3     1  UNL1        0.0459
      9 C         140.3657  144.0576  164.8378 C.ar    1  UNL1        0.0603
     10 C         140.8591  143.2188  165.9793 C.ar    1  UNL1        0.0145
     11 C         142.1878  142.5293  165.8838 C.ar    1  UNL1       -0.0003
     12 C         143.0230  142.6785  164.6468 C.ar    1  UNL1        0.0092
     13 C         142.5296  143.5173  163.5054 C.ar    1  UNL1        0.1240
     14 N         141.2009  144.2068  163.6009 N.ar    1  UNL1       -0.2356
     15 N         143.3648  143.6665  162.2684 N.pl3   1  UNL1       -0.3184
     16 C         144.6935  142.9770  162.1729 C.3     1  UNL1        0.0885
     17 C         145.1869  142.1382  163.3144 C.3     1  UNL1        0.0260
     18 C         144.3517  141.9889  164.5514 C.3     1  UNL1        0.0309
     19 H         143.0410  144.2170  161.5192 H       1  UNL1        0.1482
     20 C         139.9106  138.2804  164.0584 C.3     1  UNL1        0.0439
     21 C         140.9382  138.5685  165.1125 C.ar    1  UNL1       -0.0196
     22 C         142.3716  138.1890  164.8862 C.ar    1  UNL1       -0.0041
     23 C         143.3991  138.4772  165.9404 C.ar    1  UNL1        0.0009
     24 C         142.9932  139.1449  167.2208 C.ar    1  UNL1        0.0145
     25 C         141.5598  139.5244  167.4471 C.ar    1  UNL1        0.0477
     26 C         140.5323  139.2363  166.3929 C.ar    1  UNL1        0.0103
     27 N         141.1539  140.1922  168.7275 N.pl3   1  UNL1       -0.3028
     28 C         139.7430  140.6670  168.9111 C.3     1  UNL1        0.1231
     29 C         139.3371  141.3348  170.1915 C.3     1  UNL1        0.1636
     30 O         140.3421  141.5276  171.2882 O.3     1  UNL1       -0.3501
     31 C         141.7530  141.0526  171.1045 C.3     1  UNL1        0.1636
     32 C         142.1589  140.3849  169.8242 C.3     1  UNL1        0.1231
     33 C         140.2802  137.4681  162.8528 C.3     1  UNL1        0.0474
     34 O         139.2580  138.0980  160.5488 O.co2   1  UNL1       -0.5492
     35 C         140.4070  138.1298  161.5126 C.2     1  UNL1        0.0507
     36 O         141.6827  138.8234  161.1363 O.co2   1  UNL1       -0.5492
@<TRIPOS>UNITY_ATOM_ATTR
34 1
charge -1
@<TRIPOS>BOND
     1    34    35   ar
     2    35    36   ar
     3    35    33    1
     4    20    33    1
     5    20     1    1
     6     1     2    1
     7     2     3    1
     8     3     4    1
     9     4     5    1
    10     5     7    1
    11     7     8    1
    12     8     9    1
    13     9    10   ar
    14    10    11   ar
    15    11    12   ar
    16    12    13   ar
    17    13    14   ar
    18    13    15    1
    19    15    16    1
    20    16    17    1
    21    17    18    1
    22     5     6    1
    23    20    21    1
    24    21    22   ar
    25    22    23   ar
    26    23    24   ar
    27    24    25   ar
    28    25    27    1
    29    27    28    1
    30    28    29    1
    31    29    30    1
    32    30    31    1
    33    31    32    1
    34    25    26   ar
    35     6     2    1
    36    26    21   ar
    37    14     9   ar
    38    32    27    1
    39    18    12    1
    40    15    19    1
@<TRIPOS>MOLECULE
*****
 36 40 0 0 0
SMALL
GASTEIGER

@<TRIPOS>ATOM
      1 C         142.7502  138.3306  164.4121 C.3     1  UNL1        0.0768
      2 N         141.3451  138.2062  163.9021 N.3     1  UNL1       -0.2724
      3 C         140.1405  137.8386  164.7170 C.3     1  UNL1        0.0721
      4 C         138.9488  137.8328  163.8062 C.3     1  UNL1        0.0187
      5 C         139.4167  138.1968  162.4283 C.3     1  UNL1        0.0178
      6 C         140.8976  138.4276  162.4876 C.3     1  UNL1        0.0721
      7 C         138.5549  138.3101  161.2058 C.3     1  UNL1        0.0077
      8 C         137.5048  139.3780  161.1249 C.3     1  UNL1        0.0459
      9 C         137.8211  140.7760  161.5672 C.ar    1  UNL1        0.0603
     10 C         137.3375  141.2688  162.8989 C.ar    1  UNL1        0.0145
     11 C         137.6538  142.6668  163.3412 C.ar    1  UNL1       -0.0003
     12 C         138.4536  143.5720  162.4519 C.ar    1  UNL1        0.0092
     13 C         138.9371  143.0792  161.1202 C.ar    1  UNL1        0.1240
     14 N         138.6208  141.6812  160.6779 N.ar    1  UNL1       -0.2356
     15 N         139.7369  143.9844  160.2309 N.pl3   1  UNL1       -0.3184
     16 C         140.0532  145.3823  160.6732 C.3     1  UNL1        0.0885
     17 C         139.5696  145.8751  162.0049 C.3     1  UNL1        0.0260
     18 C         138.7699  144.9699  162.8942 C.3     1  UNL1        0.0309
     19 H         140.0543  143.6610  159.3568 H       1  UNL1        0.1482
     20 C         143.3268  139.6854  164.6988 C.3     1  UNL1        0.0439
     21 C         142.4622  140.7584  165.2914 C.ar    1  UNL1       -0.0196
     22 C         141.8313  141.7893  164.4030 C.ar    1  UNL1       -0.0041
     23 C         140.9668  142.8622  164.9956 C.ar    1  UNL1        0.0009
     24 C         140.7331  142.9044  166.4767 C.ar    1  UNL1        0.0145
     25 C         141.3640  141.8736  167.3652 C.ar    1  UNL1        0.0477
     26 C         142.2285  140.8006  166.7725 C.ar    1  UNL1        0.0103
     27 N         141.1303  141.9157  168.8463 N.pl3   1  UNL1       -0.3028
     28 C         140.1622  142.9045  169.4249 C.3     1  UNL1        0.1231
     29 C         139.9285  142.9467  170.9060 C.3     1  UNL1        0.1636
     30 O         140.6630  142.0000  171.8084 O.3     1  UNL1       -0.3501
     31 C         141.6312  141.0113  171.2297 C.3     1  UNL1        0.1636
     32 C         141.8649  140.9691  169.7487 C.3     1  UNL1        0.1231
     33 C         144.7680  139.9671  164.3928 C.3     1  UNL1        0.0474
     34 O         146.2074  141.7343  163.1455 O.co2   1  UNL1       -0.5492
     35 C         145.1405  140.6799  163.1266 C.2     1  UNL1        0.0507
     36 O         144.4461  140.3385  161.8416 O.co2   1  UNL1       -0.5492
@<TRIPOS>UNITY_ATOM_ATTR
34 1
charge -1
@<TRIPOS>BOND
     1    34    35   ar
     2    35    36   ar
     3    35    33    1
     4    20    33    1
     5    20     1    1
     6     1     2    1
     7     2     3    1
     8     3     4    1
     9     4     5    1
    10     5     7    1
    11     7     8    1
    12     8     9    1
    13     9    10   ar
    14    10    11   ar
    15    11    12   ar
    16    12    13   ar
    17    13    14   ar
    18    13    15    1
    19    15    16    1
    20    16    17    1
    21    17    18    1
    22     5     6    1
    23    20    21    1
    24    21    22   ar
    25    22    23   ar
    26    23    24   ar
    27    24    25   ar
    28    25    27    1
    29    27    28    1
    30    28    29    1
    31    29    30    1
    32    30    31    1
    33    31    32    1
    34    25    26   ar
    35     6     2    1
    36    26    21   ar
    37    14     9   ar
    38    32    27    1
    39    18    12    1
    40    15    19    1
@<TRIPOS>MOLECULE
*****
 36 40 0 0 0
SMALL
GASTEIGER

@<TRIPOS>ATOM
      1 C         138.8997  143.7875  163.5206 C.3     1  UNL1        0.0768
      2 N         138.5772  142.5763  162.6967 N.3     1  UNL1       -0.2724
      3 C         138.3743  142.5492  161.2106 C.3     1  UNL1        0.0721
      4 C         138.0727  141.1356  160.8097 C.3     1  UNL1        0.0187
      5 C         138.0892  140.2890  162.0478 C.3     1  UNL1        0.0178
      6 C         138.4009  141.1794  163.2140 C.3     1  UNL1        0.0721
      7 C         137.8379  138.8115  162.1090 C.3     1  UNL1        0.0077
      8 C         138.9896  137.8521  162.0537 C.3     1  UNL1        0.0459
      9 C         140.2708  138.1764  162.7633 C.ar    1  UNL1        0.0603
     10 C         140.5273  137.6285  164.1359 C.ar    1  UNL1        0.0145
     11 C         141.8084  137.9527  164.8456 C.ar    1  UNL1       -0.0003
     12 C         142.8330  138.8250  164.1826 C.ar    1  UNL1        0.0092
     13 C         142.5765  139.3729  162.8100 C.ar    1  UNL1        0.1240
     14 N         141.2953  139.0486  162.1004 N.ar    1  UNL1       -0.2356
     15 N         143.6010  140.2451  162.1471 N.pl3   1  UNL1       -0.3184
     16 C         144.8821  140.5693  162.8567 C.3     1  UNL1        0.0885
     17 C         145.1386  140.0214  164.2293 C.3     1  UNL1        0.0260
     18 C         144.1141  139.1492  164.8923 C.3     1  UNL1        0.0309
     19 H         143.4327  140.6047  161.2462 H       1  UNL1        0.1482
     20 C         140.3003  144.3237  163.5495 C.3     1  UNL1        0.0439
     21 C         141.3224  143.7031  164.4551 C.ar    1  UNL1       -0.0196
     22 C         142.7816  143.9718  164.2347 C.ar    1  UNL1       -0.0041
     23 C         143.8037  143.3511  165.1403 C.ar    1  UNL1        0.0009
     24 C         143.3666  142.4617  166.2664 C.ar    1  UNL1        0.0145
     25 C         141.9074  142.1930  166.4868 C.ar    1  UNL1        0.0477
     26 C         140.8853  142.8137  165.5812 C.ar    1  UNL1        0.0103
     27 N         141.4703  141.3036  167.6128 N.pl3   1  UNL1       -0.3028
     28 C         140.0109  141.0389  167.8363 C.3     1  UNL1        0.1231
     29 C         139.5738  140.1495  168.9623 C.3     1  UNL1        0.1636
     30 O         140.5962  139.5248  169.8648 O.3     1  UNL1       -0.3501
     31 C         142.0556  139.7896  169.6413 C.3     1  UNL1        0.1636
     32 C         142.4927  140.6789  168.5153 C.3     1  UNL1        0.1231
     33 C         140.6787  145.4806  162.6729 C.3     1  UNL1        0.0474
     34 O         142.0593  144.6723  160.6257 O.co2   1  UNL1       -0.5492
     35 C         140.8132  145.2866  161.1916 C.2     1  UNL1        0.0507
     36 O         139.7018  145.7068  160.2762 O.co2   1  UNL1       -0.5492
@<TRIPOS>UNITY_ATOM_ATTR
34 1
charge -1
@<TRIPOS>BOND
     1    34    35   ar
     2    35    36   ar
     3    35    33    1
     4    20    33    1
     5    20     1    1
     6     1     2    1
     7     2     3    1
     8     3     4    1
     9     4     5    1
    10     5     7    1
    11     7     8    1
    12     8     9    1
    13     9    10   ar
    14    10    11   ar
    15    11    12   ar
    16    12    13   ar
    17    13    14   ar
    18    13    15    1
    19    15    16    1
    20    16    17    1
    21    17    18    1
    22     5     6    1
    23    20    21    1
    24    21    22   ar
    25    22    23   ar
    26    23    24   ar
    27    24    25   ar
    28    25    27    1
    29    27    28    1
    30    28    29    1
    31    29    30    1
    32    30    31    1
    33    31    32    1
    34    25    26   ar
    35     6     2    1
    36    26    21   ar
    37    14     9   ar
    38    32    27    1
    39    18    12    1
    40    15    19    1
@<TRIPOS>MOLECULE
*****
 36 40 0 0 0
SMALL
GASTEIGER

@<TRIPOS>ATOM
      1 C         144.6021  142.6610  163.4017 C.3     1  UNL1        0.0768
      2 N         143.4380  143.6045  163.3344 N.3     1  UNL1       -0.2724
      3 C         143.3071  144.8982  164.0823 C.3     1  UNL1        0.0721
      4 C         141.9886  145.5132  163.7174 C.3     1  UNL1        0.0187
      5 C         141.3045  144.5997  162.7441 C.3     1  UNL1        0.0178
      6 C         142.2003  143.4200  162.5074 C.3     1  UNL1        0.0721
      7 C         139.9606  144.8260  162.1175 C.3     1  UNL1        0.0077
      8 C         138.7506  144.1292  162.6656 C.3     1  UNL1        0.0459
      9 C         138.8933  142.7961  163.3384 C.ar    1  UNL1        0.0603
     10 C         138.8500  142.7029  164.8348 C.ar    1  UNL1        0.0145
     11 C         138.9927  141.3699  165.5077 C.ar    1  UNL1       -0.0003
     12 C         139.1786  140.1301  164.6840 C.ar    1  UNL1        0.0092
     13 C         139.2219  140.2233  163.1875 C.ar    1  UNL1        0.1240
     14 N         139.0792  141.5564  162.5147 N.ar    1  UNL1       -0.2356
     15 N         139.4078  138.9836  162.3639 N.pl3   1  UNL1       -0.3184
     16 C         139.5504  137.6506  163.0367 C.3     1  UNL1        0.0885
     17 C         139.5071  137.5573  164.5332 C.3     1  UNL1        0.0260
     18 C         139.3212  138.7971  165.3568 C.3     1  UNL1        0.0309
     19 H         139.4361  139.0448  161.3817 H       1  UNL1        0.1482
     20 C         144.3651  141.1848  163.5240 C.3     1  UNL1        0.0439
     21 C         143.7391  140.6262  164.7675 C.ar    1  UNL1       -0.0196
     22 C         143.5182  139.1482  164.8970 C.ar    1  UNL1       -0.0041
     23 C         142.8923  138.5896  166.1405 C.ar    1  UNL1        0.0009
     24 C         142.4873  139.5090  167.2544 C.ar    1  UNL1        0.0145
     25 C         142.7083  140.9870  167.1249 C.ar    1  UNL1        0.0477
     26 C         143.3342  141.5455  165.8814 C.ar    1  UNL1        0.0103
     27 N         142.3034  141.9063  168.2388 N.pl3   1  UNL1       -0.3028
     28 C         143.2639  142.2045  169.3517 C.3     1  UNL1        0.1231
     29 C         142.8590  143.1238  170.4657 C.3     1  UNL1        0.1636
     30 O         141.4936  143.7450  170.4667 O.3     1  UNL1       -0.3501
     31 C         140.5332  143.4468  169.3537 C.3     1  UNL1        0.1636
     32 C         140.9381  142.5275  168.2398 C.3     1  UNL1        0.1231
     33 C         144.7539  140.2674  162.4028 C.3     1  UNL1        0.0474
     34 O         142.2748  140.1168  161.6400 O.co2   1  UNL1       -0.5492
     35 C         143.7281  139.8350  161.3975 C.2     1  UNL1        0.0507
     36 O         144.1554  139.1207  160.1496 O.co2   1  UNL1       -0.5492
@<TRIPOS>UNITY_ATOM_ATTR
34 1
charge -1
@<TRIPOS>BOND
     1    34    35   ar
     2    35    36   ar
     3    35    33    1
     4    20    33    1
     5    20     1    1
     6     1     2    1
     7     2     3    1
     8     3     4    1
     9     4     5    1
    10     5     7    1
    11     7     8    1
    12     8     9    1
    13     9    10   ar
    14    10    11   ar
    15    11    12   ar
    16    12    13   ar
    17    13    14   ar
    18    13    15    1
    19    15    16    1
    20    16    17    1
    21    17    18    1
    22     5     6    1
    23    20    21    1
    24    21    22   ar
    25    22    23   ar
    26    23    24   ar
    27    24    25   ar
    28    25    27    1
    29    27    28    1
    30    28    29    1
    31    29    30    1
    32    30    31    1
    33    31    32    1
    34    25    26   ar
    35     6     2    1
    36    26    21   ar
    37    14     9   ar
    38    32    27    1
    39    18    12    1
    40    15    19    1
@<TRIPOS>MOLECULE
*****
 36 40 0 0 0
SMALL
GASTEIGER

@<TRIPOS>ATOM
      1 C         141.7015  140.5401  168.0509 C.3     1  UNL1        0.0768
      2 N         142.5518  140.1544  166.8769 N.3     1  UNL1       -0.2724
      3 C         142.7018  138.7724  166.3130 C.3     1  UNL1        0.0721
      4 C         143.6441  138.8468  165.1483 C.3     1  UNL1        0.0187
      5 C         144.0765  140.2747  164.9924 C.3     1  UNL1        0.0178
      6 C         143.4014  141.0827  166.0607 C.3     1  UNL1        0.0721
      7 C         145.0186  140.8018  163.9510 C.3     1  UNL1        0.0077
      8 C         145.2246  142.2805  163.8057 C.3     1  UNL1        0.0459
      9 C         144.0768  143.1626  163.4125 C.ar    1  UNL1        0.0603
     10 C         143.6799  144.3126  164.2900 C.ar    1  UNL1        0.0145
     11 C         142.5321  145.1947  163.8968 C.ar    1  UNL1       -0.0003
     12 C         141.7813  144.9268  162.6262 C.ar    1  UNL1        0.0092
     13 C         142.1782  143.7768  161.7487 C.ar    1  UNL1        0.1240
     14 N         143.3260  142.8947  162.1419 N.ar    1  UNL1       -0.2356
     15 N         141.4274  143.5089  160.4781 N.pl3   1  UNL1       -0.3184
     16 C         140.2797  144.3910  160.0850 C.3     1  UNL1        0.0885
     17 C         139.8828  145.5410  160.9624 C.3     1  UNL1        0.0260
     18 C         140.6336  145.8089  162.2330 C.3     1  UNL1        0.0309
     19 H         141.6879  142.7542  159.9022 H       1  UNL1        0.1482
     20 C         140.7986  141.7347  167.9627 C.3     1  UNL1        0.0439
     21 C         140.1316  142.0764  166.6633 C.ar    1  UNL1       -0.0196
     22 C         139.8687  143.5101  166.3094 C.ar    1  UNL1       -0.0041
     23 C         139.2016  143.8518  165.0101 C.ar    1  UNL1        0.0009
     24 C         138.7975  142.7597  164.0645 C.ar    1  UNL1        0.0145
     25 C         139.0604  141.3259  164.4184 C.ar    1  UNL1        0.0477
     26 C         139.7274  140.9843  165.7177 C.ar    1  UNL1        0.0103
     27 N         138.6563  140.2338  163.4728 N.pl3   1  UNL1       -0.3028
     28 C         139.0234  138.8103  163.7705 C.3     1  UNL1        0.1231
     29 C         138.6193  137.7181  162.8249 C.3     1  UNL1        0.1636
     30 O         137.8481  138.0497  161.5818 O.3     1  UNL1       -0.3501
     31 C         137.4811  139.4733  161.2842 C.3     1  UNL1        0.1636
     32 C         137.8851  140.5653  162.2297 C.3     1  UNL1        0.1231
     33 C         140.5628  142.5876  169.1739 C.3     1  UNL1        0.0474
     34 O         140.5462  142.2830  171.7540 O.co2   1  UNL1       -0.5492
     35 C         139.9556  141.9873  170.4072 C.2     1  UNL1        0.0507
     36 O         138.7579  141.0914  170.2937 O.co2   1  UNL1       -0.5492
@<TRIPOS>UNITY_ATOM_ATTR
34 1
charge -1
@<TRIPOS>BOND
     1    34    35   ar
     2    35    36   ar
     3    35    33    1
     4    20    33    1
     5    20     1    1
     6     1     2    1
     7     2     3    1
     8     3     4    1
     9     4     5    1
    10     5     7    1
    11     7     8    1
    12     8     9    1
    13     9    10   ar
    14    10    11   ar
    15    11    12   ar
    16    12    13   ar
    17    13    14   ar
    18    13    15    1
    19    15    16    1
    20    16    17    1
    21    17    18    1
    22     5     6    1
    23    20    21    1
    24    21    22   ar
    25    22    23   ar
    26    23    24   ar
    27    24    25   ar
    28    25    27    1
    29    27    28    1
    30    28    29    1
    31    29    30    1
    32    30    31    1
    33    31    32    1
    34    25    26   ar
    35     6     2    1
    36    26    21   ar
    37    14     9   ar
    38    32    27    1
    39    18    12    1
    40    15    19    1
@<TRIPOS>MOLECULE
*****
 36 40 0 0 0
SMALL
GASTEIGER

@<TRIPOS>ATOM
      1 C         140.5959  140.1574  168.4676 C.3     1  UNL1        0.0768
      2 N         139.8611  139.5276  167.3215 N.3     1  UNL1       -0.2724
      3 C         138.3835  139.2785  167.2518 C.3     1  UNL1        0.0721
      4 C         138.0840  138.6333  165.9312 C.3     1  UNL1        0.0187
      5 C         139.3765  138.4835  165.1848 C.3     1  UNL1        0.0178
      6 C         140.4747  139.0362  166.0440 C.3     1  UNL1        0.0721
      7 C         139.5416  137.8860  163.8189 C.3     1  UNL1        0.0077
      8 C         139.2727  138.7168  162.5993 C.3     1  UNL1        0.0459
      9 C         140.2335  139.7979  162.2014 C.ar    1  UNL1        0.0603
     10 C         139.7499  140.9772  161.4106 C.ar    1  UNL1        0.0145
     11 C         140.7107  142.0582  161.0127 C.ar    1  UNL1       -0.0003
     12 C         142.1550  141.9600  161.4056 C.ar    1  UNL1        0.0092
     13 C         142.6385  140.7807  162.1965 C.ar    1  UNL1        0.1240
     14 N         141.6777  139.6996  162.5944 N.ar    1  UNL1       -0.2356
     15 N         144.0828  140.6824  162.5894 N.pl3   1  UNL1       -0.3184
     16 C         145.0435  141.7634  162.1915 C.3     1  UNL1        0.0885
     17 C         144.5599  142.9427  161.4006 C.3     1  UNL1        0.0260
     18 C         143.1157  143.0410  161.0077 C.3     1  UNL1        0.0309
     19 H         144.4001  139.9084  163.1084 H       1  UNL1        0.1482
     20 C         140.9318  141.6188  168.4307 C.3     1  UNL1        0.0439
     21 C         141.5268  142.2207  167.1922 C.ar    1  UNL1       -0.0196
     22 C         143.0064  142.1451  166.9579 C.ar    1  UNL1       -0.0041
     23 C         143.6013  142.7469  165.7194 C.ar    1  UNL1        0.0009
     24 C         142.7166  143.4244  164.7152 C.ar    1  UNL1        0.0145
     25 C         141.2370  143.5000  164.9495 C.ar    1  UNL1        0.0477
     26 C         140.6421  142.8982  166.1880 C.ar    1  UNL1        0.0103
     27 N         140.3523  144.1775  163.9454 N.pl3   1  UNL1       -0.3028
     28 C         140.9141  145.2379  163.0456 C.3     1  UNL1        0.1231
     29 C         140.0294  145.9154  162.0414 C.3     1  UNL1        0.1636
     30 O         138.5829  145.5323  161.9371 O.3     1  UNL1       -0.3501
     31 C         138.0211  144.4719  162.8370 C.3     1  UNL1        0.1636
     32 C         138.9058  143.7944  163.8411 C.3     1  UNL1        0.1231
     33 C         140.6727  142.4784  169.6324 C.3     1  UNL1        0.0474
     34 O         141.7229  141.5919  171.8372 O.co2   1  UNL1       -0.5492
     35 C         141.7060  142.5863  170.7143 C.2     1  UNL1        0.0507
     36 O         142.7225  143.6886  170.6733 O.co2   1  UNL1       -0.5492
@<TRIPOS>UNITY_ATOM_ATTR
34 1
charge -1
@<TRIPOS>BOND
     1    34    35   ar
     2    35    36   ar
     3    35    33    1
     4    20    33    1
     5    20     1    1
     6     1     2    1
     7     2     3    1
     8     3     4    1
     9     4     5    1
    10     5     7    1
    11     7     8    1
    12     8     9    1
    13     9    10   ar
    14    10    11   ar
    15    11    12   ar
    16    12    13   ar
    17    13    14   ar
    18    13    15    1
    19    15    16    1
    20    16    17    1
    21    17    18    1
    22     5     6    1
    23    20    21    1
    24    21    22   ar
    25    22    23   ar
    26    23    24   ar
    27    24    25   ar
    28    25    27    1
    29    27    28    1
    30    28    29    1
    31    29    30    1
    32    30    31    1
    33    31    32    1
    34    25    26   ar
    35     6     2    1
    36    26    21   ar
    37    14     9   ar
    38    32    27    1
    39    18    12    1
    40    15    19    1
@<TRIPOS>MOLECULE
*****
 36 40 0 0 0
SMALL
GASTEIGER

@<TRIPOS>ATOM
      1 C         140.7537  138.1572  163.6036 C.3     1  UNL1        0.0768
      2 N         142.0877  138.6385  164.0922 N.3     1  UNL1       -0.2724
      3 C         142.7195  138.2981  165.4094 C.3     1  UNL1        0.0721
      4 C         144.0464  138.9940  165.4807 C.3     1  UNL1        0.0187
      5 C         144.2347  139.7644  164.2075 C.3     1  UNL1        0.0178
      6 C         143.0242  139.5447  163.3494 C.3     1  UNL1        0.0721
      7 C         145.4247  140.6067  163.8545 C.3     1  UNL1        0.0077
      8 C         145.4216  142.0750  164.1608 C.3     1  UNL1        0.0459
      9 C         144.1387  142.8504  164.1041 C.ar    1  UNL1        0.0603
     10 C         144.0134  144.0266  163.1818 C.ar    1  UNL1        0.0145
     11 C         142.7307  144.8020  163.1251 C.ar    1  UNL1       -0.0003
     12 C         141.5730  144.4010  163.9907 C.ar    1  UNL1        0.0092
     13 C         141.6983  143.2248  164.9131 C.ar    1  UNL1        0.1240
     14 N         142.9812  142.4494  164.9697 N.ar    1  UNL1       -0.2356
     15 N         140.5408  142.8238  165.7787 N.pl3   1  UNL1       -0.3184
     16 C         139.2580  143.5992  165.7219 C.3     1  UNL1        0.0885
     17 C         139.1327  144.7754  164.7996 C.3     1  UNL1        0.0260
     18 C         140.2902  145.1764  163.9340 C.3     1  UNL1        0.0309
     19 H         140.6230  142.0518  166.3840 H       1  UNL1        0.1482
     20 C         139.4998  138.8602  164.0320 C.3     1  UNL1        0.0439
     21 C         139.0856  140.1337  163.3561 C.ar    1  UNL1       -0.0196
     22 C         137.7031  140.6774  163.5632 C.ar    1  UNL1       -0.0041
     23 C         137.2890  141.9508  162.8873 C.ar    1  UNL1        0.0009
     24 C         138.2574  142.6806  162.0043 C.ar    1  UNL1        0.0145
     25 C         139.6399  142.1368  161.7972 C.ar    1  UNL1        0.0477
     26 C         140.0540  140.8634  162.4731 C.ar    1  UNL1        0.0103
     27 N         140.6083  142.8666  160.9142 N.pl3   1  UNL1       -0.3028
     28 C         141.9442  142.2593  160.6034 C.3     1  UNL1        0.1231
     29 C         142.9126  142.9890  159.7204 C.3     1  UNL1        0.1636
     30 O         142.5451  144.3260  159.1482 O.3     1  UNL1       -0.3501
     31 C         141.2092  144.9332  159.4590 C.3     1  UNL1        0.1636
     32 C         140.2409  144.2035  160.3420 C.3     1  UNL1        0.1231
     33 C         138.6601  138.2897  165.1363 C.3     1  UNL1        0.0474
     34 O         139.6385  140.0318  166.7970 O.co2   1  UNL1       -0.5492
     35 C         138.6606  138.9366  166.4896 C.2     1  UNL1        0.0507
     36 O         137.6834  138.4883  167.5356 O.co2   1  UNL1       -0.5492
@<TRIPOS>UNITY_ATOM_ATTR
34 1
charge -1
@<TRIPOS>BOND
     1    34    35   ar
     2    35    36   ar
     3    35    33    1
     4    20    33    1
     5    20     1    1
     6     1     2    1
     7     2     3    1
     8     3     4    1
     9     4     5    1
    10     5     7    1
    11     7     8    1
    12     8     9    1
    13     9    10   ar
    14    10    11   ar
    15    11    12   ar
    16    12    13   ar
    17    13    14   ar
    18    13    15    1
    19    15    16    1
    20    16    17    1
    21    17    18    1
    22     5     6    1
    23    20    21    1
    24    21    22   ar
    25    22    23   ar
    26    23    24   ar
    27    24    25   ar
    28    25    27    1
    29    27    28    1
    30    28    29    1
    31    29    30    1
    32    30    31    1
    33    31    32    1
    34    25    26   ar
    35     6     2    1
    36    26    21   ar
    37    14     9   ar
    38    32    27    1
    39    18    12    1
    40    15    19    1
