@<TRIPOS>MOLECULE
*****
 43 46 0 0 0
SMALL
GASTEIGER

@<TRIPOS>ATOM
      1 C         140.0210  139.9481  163.4775 C.3     1  UNL1        0.0799
      2 C         139.8629  140.0611  164.9649 C.ar    1  UNL1        0.0374
      3 C         140.2333  141.3356  165.6638 C.ar    1  UNL1        0.0023
      4 C         140.0752  141.4487  167.1511 C.ar    1  UNL1        0.0181
      5 C         140.4456  142.7232  167.8500 C.ar    1  UNL1        0.0082
      6 C         140.2874  142.8362  169.3374 C.ar    1  UNL1        0.0347
      7 BR        140.6579  144.1107  170.0363 Br      1  UNL1       -0.0490
      8 C         139.7588  141.6748  170.1258 C.ar    1  UNL1        0.0082
      9 C         139.3884  140.4003  169.4269 C.ar    1  UNL1        0.0197
     10 C         139.5465  140.2873  167.9396 C.ar    1  UNL1        0.0844
     11 N         139.1761  139.0128  167.2407 N.ar    1  UNL1       -0.2119
     12 C         139.3343  138.8997  165.7533 C.ar    1  UNL1        0.2211
     13 O         138.9638  137.6252  165.0545 O.3     1  UNL1       -0.4563
     14 C         138.0069  136.9166  165.9666 C.3     1  UNL1        0.2542
     15 C         141.3313  139.5095  162.8938 C.ar    1  UNL1        0.0148
     16 C         141.4387  138.1810  162.2057 C.ar    1  UNL1       -0.0014
     17 C         142.7490  137.7424  161.6220 C.ar    1  UNL1        0.0029
     18 C         143.9520  138.6324  161.7264 C.ar    1  UNL1        0.0392
     19 C         143.8446  139.9609  162.4145 C.ar    1  UNL1        0.1657
     20 C         142.5342  140.3995  162.9982 C.ar    1  UNL1        0.1702
     21 F         142.4268  141.7280  163.6863 F       1  UNL1       -0.2013
     22 O         145.0475  140.8509  162.5189 O.3     1  UNL1       -0.4692
     23 C         145.6084  141.1988  163.8658 C.3     1  UNL1        0.2526
     24 C         138.8689  140.2736  162.5739 C.3     1  UNL1        0.1161
     25 O         138.3049  138.9020  162.7988 O.3     1  UNL1       -0.3820
     26 H         137.4809  138.8048  162.2964 H       1  UNL1        0.2107
     27 C         139.6889  144.1221  163.0903 C.ar    1  UNL1        0.2259
     28 C         139.1249  142.7505  163.3152 C.ar    1  UNL1        0.0558
     29 C         139.4328  141.6452  162.3490 C.ar    1  UNL1        0.0098
     30 C         140.3047  141.9116  161.1578 C.ar    1  UNL1        0.0361
     31 C         140.8686  143.2833  160.9329 C.ar    1  UNL1        0.1888
     32 N         140.5607  144.3885  161.8991 N.ar    1  UNL1       -0.1930
     33 S         141.7405  143.5497  159.7417 S.O2    1  UNL1        0.0269
     34 C         142.6123  143.8161  158.5505 C.3     1  UNL1        0.1834
     35 O         141.4808  142.1599  159.2408 O.2     1  UNL1       -0.1671
     36 O         142.0002  144.9396  160.2426 O.2     1  UNL1       -0.1671
     37 C         138.7108  144.9170  165.3622 C.3     1  UNL1        0.2542
     38 O         139.3809  145.2273  164.0566 O.3     1  UNL1       -0.4561
     39 C         137.7167  140.5991  161.6703 C.3     1  UNL1        0.0491
     40 C         137.4048  139.7104  160.5028 C.3     1  UNL1        0.0750
     41 N         138.2540  139.7690  159.2677 N.3     1  UNL1       -0.2702
     42 C         139.4370  138.8575  159.1270 C.3     1  UNL1        0.0897
     43 C         137.9202  140.7390  158.1733 C.3     1  UNL1        0.0897
@<TRIPOS>BOND
     1    37    38    1
     2    38    27    1
     3    27    28   ar
     4    28    29   ar
     5    29    24    1
     6    24    25    1
     7    24    39    1
     8    39    40    1
     9    40    41    1
    10    41    42    1
    11    41    43    1
    12    24     1    1
    13     1     2    1
    14     2     3   ar
    15     3     4   ar
    16     4     5   ar
    17     5     6   ar
    18     6     7    1
    19     6     8   ar
    20     8     9   ar
    21     9    10   ar
    22    10    11   ar
    23    11    12   ar
    24    12    13    1
    25    13    14    1
    26     1    15    1
    27    15    16   ar
    28    16    17   ar
    29    17    18   ar
    30    18    19   ar
    31    19    22    1
    32    22    23    1
    33    19    20   ar
    34    20    21    1
    35    29    30   ar
    36    30    31   ar
    37    31    33    1
    38    33    34    1
    39    33    35    2
    40    33    36    2
    41    31    32   ar
    42    32    27   ar
    43    12     2   ar
    44    20    15   ar
    45    10     4   ar
    46    25    26    1
@<TRIPOS>MOLECULE
*****
 43 46 0 0 0
SMALL
GASTEIGER

@<TRIPOS>ATOM
      1 C         141.3137  141.2092  162.3721 C.3     1  UNL1        0.0799
      2 C         140.9719  140.9040  163.8005 C.ar    1  UNL1        0.0374
      3 C         141.0081  141.9945  164.8297 C.ar    1  UNL1        0.0023
      4 C         140.6664  141.6895  166.2580 C.ar    1  UNL1        0.0181
      5 C         140.7026  142.7800  167.2873 C.ar    1  UNL1        0.0082
      6 C         140.3609  142.4748  168.7157 C.ar    1  UNL1        0.0347
      7 BR        140.3971  143.5654  169.7449 Br      1  UNL1       -0.0490
      8 C         139.9830  141.0792  169.1147 C.ar    1  UNL1        0.0082
      9 C         139.9468  139.9886  168.0854 C.ar    1  UNL1        0.0197
     10 C         140.2885  140.2937  166.6571 C.ar    1  UNL1        0.0844
     11 N         140.2523  139.2032  165.6279 N.ar    1  UNL1       -0.2119
     12 C         140.5940  139.5083  164.1995 C.ar    1  UNL1        0.2211
     13 O         140.5579  138.4178  163.1702 O.3     1  UNL1       -0.4563
     14 C         139.2053  137.7804  163.2906 C.3     1  UNL1        0.2542
     15 C         140.4243  140.7208  161.2673 C.ar    1  UNL1        0.0148
     16 C         138.9470  140.9743  161.3263 C.ar    1  UNL1       -0.0014
     17 C         138.0576  140.4860  160.2216 C.ar    1  UNL1        0.0029
     18 C         138.6455  139.7442  159.0578 C.ar    1  UNL1        0.0392
     19 C         140.1228  139.4908  158.9988 C.ar    1  UNL1        0.1657
     20 C         141.0122  139.9791  160.1037 C.ar    1  UNL1        0.1702
     21 F         142.4894  139.7257  160.0447 F       1  UNL1       -0.2013
     22 O         140.7106  138.7490  157.8352 O.3     1  UNL1       -0.4692
     23 C         139.8674  137.7810  157.0595 C.3     1  UNL1        0.2526
     24 C         142.5448  142.0026  162.0485 C.3     1  UNL1        0.1161
     25 O         143.3978  140.9217  162.6435 O.3     1  UNL1       -0.3820
     26 H         144.3323  141.1725  162.5745 H       1  UNL1        0.2107
     27 C         139.6635  144.6982  161.6226 C.ar    1  UNL1        0.2259
     28 C         140.5165  143.6173  162.2176 C.ar    1  UNL1        0.0558
     29 C         141.6918  143.0836  161.4536 C.ar    1  UNL1        0.0098
     30 C         142.0141  143.6308  160.0947 C.ar    1  UNL1        0.0361
     31 C         141.1611  144.7117  159.4998 C.ar    1  UNL1        0.1888
     32 N         139.9858  145.2454  160.2638 N.ar    1  UNL1       -0.1930
     33 S         141.4835  145.2589  158.1408 S.O2    1  UNL1        0.0269
     34 C         141.8059  145.8061  156.7819 C.3     1  UNL1        0.1834
     35 O         140.1479  145.9404  158.0984 O.2     1  UNL1       -0.1671
     36 O         142.8191  144.5774  158.1833 O.2     1  UNL1       -0.1671
     37 C         137.7032  144.3237  163.2861 C.3     1  UNL1        0.2542
     38 O         138.4881  145.2320  162.3867 O.3     1  UNL1       -0.4561
     39 C         143.7760  142.7961  161.7250 C.3     1  UNL1        0.0491
     40 C         144.7041  143.2219  162.8238 C.3     1  UNL1        0.0750
     41 N         144.1523  143.8402  164.0741 N.3     1  UNL1       -0.2702
     42 C         143.4196  145.1472  164.0041 C.3     1  UNL1        0.0897
     43 C         144.3334  143.1516  165.3944 C.3     1  UNL1        0.0897
@<TRIPOS>BOND
     1    37    38    1
     2    38    27    1
     3    27    28   ar
     4    28    29   ar
     5    29    24    1
     6    24    25    1
     7    24    39    1
     8    39    40    1
     9    40    41    1
    10    41    42    1
    11    41    43    1
    12    24     1    1
    13     1     2    1
    14     2     3   ar
    15     3     4   ar
    16     4     5   ar
    17     5     6   ar
    18     6     7    1
    19     6     8   ar
    20     8     9   ar
    21     9    10   ar
    22    10    11   ar
    23    11    12   ar
    24    12    13    1
    25    13    14    1
    26     1    15    1
    27    15    16   ar
    28    16    17   ar
    29    17    18   ar
    30    18    19   ar
    31    19    22    1
    32    22    23    1
    33    19    20   ar
    34    20    21    1
    35    29    30   ar
    36    30    31   ar
    37    31    33    1
    38    33    34    1
    39    33    35    2
    40    33    36    2
    41    31    32   ar
    42    32    27   ar
    43    12     2   ar
    44    20    15   ar
    45    10     4   ar
    46    25    26    1
@<TRIPOS>MOLECULE
*****
 43 46 0 0 0
SMALL
GASTEIGER

@<TRIPOS>ATOM
      1 C         141.6816  140.6510  162.8382 C.3     1  UNL1        0.0799
      2 C         141.9604  140.3150  164.2733 C.ar    1  UNL1        0.0374
      3 C         141.9730  141.4001  165.3088 C.ar    1  UNL1        0.0023
      4 C         142.2518  141.0642  166.7439 C.ar    1  UNL1        0.0181
      5 C         142.2644  142.1493  167.7794 C.ar    1  UNL1        0.0082
      6 C         142.5433  141.8133  169.2145 C.ar    1  UNL1        0.0347
      7 BR        142.5559  142.8985  170.2500 Br      1  UNL1       -0.0490
      8 C         142.8094  140.3922  169.6140 C.ar    1  UNL1        0.0082
      9 C         142.7968  139.3071  168.5785 C.ar    1  UNL1        0.0197
     10 C         142.5180  139.6431  167.1435 C.ar    1  UNL1        0.0844
     11 N         142.5053  138.5579  166.1079 N.ar    1  UNL1       -0.2119
     12 C         142.2265  138.8939  164.6728 C.ar    1  UNL1        0.2211
     13 O         142.2139  137.8088  163.6373 O.3     1  UNL1       -0.4563
     14 C         141.0452  136.9305  163.9731 C.3     1  UNL1        0.2542
     15 C         140.5081  140.0330  162.1375 C.ar    1  UNL1        0.0148
     16 C         139.1579  140.0355  162.7909 C.ar    1  UNL1       -0.0014
     17 C         137.9845  139.4174  162.0902 C.ar    1  UNL1        0.0029
     18 C         138.1612  138.7968  160.7361 C.ar    1  UNL1        0.0392
     19 C         139.5114  138.7942  160.0827 C.ar    1  UNL1        0.1657
     20 C         140.6849  139.4123  160.7835 C.ar    1  UNL1        0.1702
     21 F         142.0351  139.4098  160.1301 F       1  UNL1       -0.2013
     22 O         139.6882  138.1736  158.7286 O.3     1  UNL1       -0.4692
     23 C         139.7200  139.0403  157.5048 C.3     1  UNL1        0.2526
     24 C         142.5763  141.6051  162.1039 C.3     1  UNL1        0.1161
     25 O         143.7240  140.6529  162.2650 O.3     1  UNL1       -0.3820
     26 H         144.5169  141.0293  161.8521 H       1  UNL1        0.2107
     27 C         139.8884  143.9866  160.4147 C.ar    1  UNL1        0.2259
     28 C         141.0361  143.0344  160.5758 C.ar    1  UNL1        0.0558
     29 C         141.4285  142.5573  161.9427 C.ar    1  UNL1        0.0098
     30 C         140.6732  143.0324  163.1484 C.ar    1  UNL1        0.0361
     31 C         139.5254  143.9846  162.9872 C.ar    1  UNL1        0.1888
     32 N         139.1330  144.4618  161.6203 N.ar    1  UNL1       -0.1930
     33 S         138.7701  144.4597  164.1929 S.O2    1  UNL1        0.0269
     34 C         138.0148  144.9348  165.3987 C.3     1  UNL1        0.1834
     35 O         137.4964  144.4453  163.4008 O.2     1  UNL1       -0.1671
     36 O         140.0438  144.4742  164.9852 O.2     1  UNL1       -0.1671
     37 C         140.3942  145.3986  158.2932 C.3     1  UNL1        0.2542
     38 O         139.4960  144.4638  159.0477 O.3     1  UNL1       -0.4561
     39 C         143.4709  142.5592  161.3695 C.3     1  UNL1        0.0491
     40 C         144.6064  143.2264  162.0877 C.3     1  UNL1        0.0750
     41 N         144.4427  143.6531  163.5164 N.3     1  UNL1       -0.2702
     42 C         143.7083  144.9199  163.8414 C.3     1  UNL1        0.0897
     43 C         145.0136  142.8128  164.6202 C.3     1  UNL1        0.0897
@<TRIPOS>BOND
     1    37    38    1
     2    38    27    1
     3    27    28   ar
     4    28    29   ar
     5    29    24    1
     6    24    25    1
     7    24    39    1
     8    39    40    1
     9    40    41    1
    10    41    42    1
    11    41    43    1
    12    24     1    1
    13     1     2    1
    14     2     3   ar
    15     3     4   ar
    16     4     5   ar
    17     5     6   ar
    18     6     7    1
    19     6     8   ar
    20     8     9   ar
    21     9    10   ar
    22    10    11   ar
    23    11    12   ar
    24    12    13    1
    25    13    14    1
    26     1    15    1
    27    15    16   ar
    28    16    17   ar
    29    17    18   ar
    30    18    19   ar
    31    19    22    1
    32    22    23    1
    33    19    20   ar
    34    20    21    1
    35    29    30   ar
    36    30    31   ar
    37    31    33    1
    38    33    34    1
    39    33    35    2
    40    33    36    2
    41    31    32   ar
    42    32    27   ar
    43    12     2   ar
    44    20    15   ar
    45    10     4   ar
    46    25    26    1
@<TRIPOS>MOLECULE
*****
 43 46 0 0 0
SMALL
GASTEIGER

@<TRIPOS>ATOM
      1 C         140.7260  140.5474  162.9869 C.3     1  UNL1        0.0799
      2 C         140.4232  140.4707  164.4540 C.ar    1  UNL1        0.0374
      3 C         140.6627  141.6627  165.3326 C.ar    1  UNL1        0.0023
      4 C         140.3599  141.5860  166.7997 C.ar    1  UNL1        0.0181
      5 C         140.5993  142.7780  167.6782 C.ar    1  UNL1        0.0082
      6 C         140.2965  142.7013  169.1454 C.ar    1  UNL1        0.0347
      7 BR        140.5360  143.8932  170.0239 Br      1  UNL1       -0.0490
      8 C         139.7542  141.4326  169.7339 C.ar    1  UNL1        0.0082
      9 C         139.5147  140.2407  168.8554 C.ar    1  UNL1        0.0197
     10 C         139.8175  140.3173  167.3883 C.ar    1  UNL1        0.0844
     11 N         139.5780  139.1253  166.5097 N.ar    1  UNL1       -0.2119
     12 C         139.8809  139.2021  165.0426 C.ar    1  UNL1        0.2211
     13 O         139.6414  138.0101  164.1640 O.3     1  UNL1       -0.4563
     14 C         140.7662  137.0579  164.4435 C.3     1  UNL1        0.2542
     15 C         141.8563  139.7466  162.4115 C.ar    1  UNL1        0.0148
     16 C         143.2026  139.7671  163.0724 C.ar    1  UNL1       -0.0014
     17 C         144.3329  138.9663  162.4970 C.ar    1  UNL1        0.0029
     18 C         144.1168  138.1448  161.2606 C.ar    1  UNL1        0.0392
     19 C         142.7704  138.1243  160.5997 C.ar    1  UNL1        0.1657
     20 C         141.6401  138.9252  161.1752 C.ar    1  UNL1        0.1702
     21 F         140.2938  138.9046  160.5142 F       1  UNL1       -0.2013
     22 O         142.5543  137.3029  159.3634 O.3     1  UNL1       -0.4692
     23 C         142.5626  137.9604  158.0152 C.3     1  UNL1        0.2526
     24 C         139.8985  141.4250  162.0952 C.3     1  UNL1        0.1161
     25 O         138.6597  140.7011  162.5323 O.3     1  UNL1       -0.3820
     26 H         137.8881  141.0801  162.0829 H       1  UNL1        0.2107
     27 C         143.2024  143.6199  162.2256 C.ar    1  UNL1        0.2259
     28 C         141.9635  142.8960  162.6627 C.ar    1  UNL1        0.0558
     29 C         141.1374  142.1489  161.6580 C.ar    1  UNL1        0.0098
     30 C         141.5502  142.1259  160.2162 C.ar    1  UNL1        0.0361
     31 C         142.7891  142.8498  159.7790 C.ar    1  UNL1        0.1888
     32 N         143.6152  143.5968  160.7837 N.ar    1  UNL1       -0.1930
     33 S         143.2018  142.8267  158.3371 S.O2    1  UNL1        0.0269
     34 C         143.6146  142.8037  156.8952 C.3     1  UNL1        0.1834
     35 O         143.4456  141.3496  158.4304 O.2     1  UNL1       -0.1671
     36 O         142.9581  144.3039  158.2436 O.2     1  UNL1       -0.1671
     37 C         143.3656  145.2933  164.2063 C.3     1  UNL1        0.2542
     38 O         144.0285  144.3669  163.2304 O.3     1  UNL1       -0.4561
     39 C         139.0711  142.3026  161.2035 C.3     1  UNL1        0.0491
     40 C         138.0156  143.1897  161.7944 C.3     1  UNL1        0.0750
     41 N         138.3815  144.1896  162.8509 N.3     1  UNL1       -0.2702
     42 C         137.9079  143.9979  164.2612 C.3     1  UNL1        0.0897
     43 C         139.2211  145.3812  162.4971 C.3     1  UNL1        0.0897
@<TRIPOS>BOND
     1    37    38    1
     2    38    27    1
     3    27    28   ar
     4    28    29   ar
     5    29    24    1
     6    24    25    1
     7    24    39    1
     8    39    40    1
     9    40    41    1
    10    41    42    1
    11    41    43    1
    12    24     1    1
    13     1     2    1
    14     2     3   ar
    15     3     4   ar
    16     4     5   ar
    17     5     6   ar
    18     6     7    1
    19     6     8   ar
    20     8     9   ar
    21     9    10   ar
    22    10    11   ar
    23    11    12   ar
    24    12    13    1
    25    13    14    1
    26     1    15    1
    27    15    16   ar
    28    16    17   ar
    29    17    18   ar
    30    18    19   ar
    31    19    22    1
    32    22    23    1
    33    19    20   ar
    34    20    21    1
    35    29    30   ar
    36    30    31   ar
    37    31    33    1
    38    33    34    1
    39    33    35    2
    40    33    36    2
    41    31    32   ar
    42    32    27   ar
    43    12     2   ar
    44    20    15   ar
    45    10     4   ar
    46    25    26    1
@<TRIPOS>MOLECULE
*****
 43 46 0 0 0
SMALL
GASTEIGER

@<TRIPOS>ATOM
      1 C         142.3665  141.3029  163.4620 C.3     1  UNL1        0.0799
      2 C         142.5849  141.6177  164.9123 C.ar    1  UNL1        0.0374
      3 C         141.7498  140.9435  165.9602 C.ar    1  UNL1        0.0023
      4 C         141.9682  141.2583  167.4104 C.ar    1  UNL1        0.0181
      5 C         141.1330  140.5841  168.4582 C.ar    1  UNL1        0.0082
      6 C         141.3515  140.8989  169.9085 C.ar    1  UNL1        0.0347
      7 BR        140.5163  140.2247  170.9564 Br      1  UNL1       -0.0490
      8 C         142.4050  141.8879  170.3109 C.ar    1  UNL1        0.0082
      9 C         143.2402  142.5621  169.2630 C.ar    1  UNL1        0.0197
     10 C         143.0218  142.2473  167.8128 C.ar    1  UNL1        0.0844
     11 N         143.8569  142.9215  166.7649 N.ar    1  UNL1       -0.2119
     12 C         143.6385  142.6067  165.3147 C.ar    1  UNL1        0.2211
     13 O         144.4736  143.2809  164.2668 O.3     1  UNL1       -0.4563
     14 C         144.0158  144.7088  164.2288 C.3     1  UNL1        0.2542
     15 C         141.7549  142.3296  162.5555 C.ar    1  UNL1        0.0148
     16 C         142.5644  142.9237  161.4412 C.ar    1  UNL1       -0.0014
     17 C         141.9528  143.9504  160.5348 C.ar    1  UNL1        0.0029
     18 C         140.5315  144.3830  160.7425 C.ar    1  UNL1        0.0392
     19 C         139.7220  143.7888  161.8568 C.ar    1  UNL1        0.1657
     20 C         140.3337  142.7621  162.7633 C.ar    1  UNL1        0.1702
     21 F         139.5242  142.1679  163.8776 F       1  UNL1       -0.2013
     22 O         138.3009  144.2213  162.0646 O.3     1  UNL1       -0.4692
     23 C         137.7868  144.4664  163.4523 C.3     1  UNL1        0.2526
     24 C         142.7597  139.9613  162.9183 C.3     1  UNL1        0.1161
     25 O         144.2013  140.3753  162.9393 O.3     1  UNL1       -0.3820
     26 H         144.7518  139.6467  162.6123 H       1  UNL1        0.2107
     27 C         139.1402  139.0461  161.5725 C.ar    1  UNL1        0.2259
     28 C         140.5817  139.4601  161.5935 C.ar    1  UNL1        0.0558
     29 C         141.3181  139.5473  162.8973 C.ar    1  UNL1        0.0098
     30 C         140.6130  139.2204  164.1802 C.ar    1  UNL1        0.0361
     31 C         139.1714  138.8064  164.1592 C.ar    1  UNL1        0.1888
     32 N         138.4350  138.7192  162.8554 N.ar    1  UNL1       -0.1930
     33 S         138.4662  138.4795  165.4422 S.O2    1  UNL1        0.0269
     34 C         137.7611  138.1526  166.7251 C.3     1  UNL1        0.1834
     35 O         138.8203  137.0323  165.2682 O.2     1  UNL1       -0.1671
     36 O         138.1120  139.9267  165.6163 O.2     1  UNL1       -0.1671
     37 C         139.0721  139.3969  158.9991 C.3     1  UNL1        0.2542
     38 O         138.4038  138.9590  160.2686 O.3     1  UNL1       -0.4561
     39 C         143.1529  138.6198  162.3746 C.3     1  UNL1        0.0491
     40 C         144.0823  138.5294  161.2006 C.3     1  UNL1        0.0750
     41 N         143.5788  138.8319  159.8204 N.3     1  UNL1       -0.2702
     42 C         143.8575  140.1672  159.1964 C.3     1  UNL1        0.0897
     43 C         142.7966  137.7992  159.0643 C.3     1  UNL1        0.0897
@<TRIPOS>BOND
     1    37    38    1
     2    38    27    1
     3    27    28   ar
     4    28    29   ar
     5    29    24    1
     6    24    25    1
     7    24    39    1
     8    39    40    1
     9    40    41    1
    10    41    42    1
    11    41    43    1
    12    24     1    1
    13     1     2    1
    14     2     3   ar
    15     3     4   ar
    16     4     5   ar
    17     5     6   ar
    18     6     7    1
    19     6     8   ar
    20     8     9   ar
    21     9    10   ar
    22    10    11   ar
    23    11    12   ar
    24    12    13    1
    25    13    14    1
    26     1    15    1
    27    15    16   ar
    28    16    17   ar
    29    17    18   ar
    30    18    19   ar
    31    19    22    1
    32    22    23    1
    33    19    20   ar
    34    20    21    1
    35    29    30   ar
    36    30    31   ar
    37    31    33    1
    38    33    34    1
    39    33    35    2
    40    33    36    2
    41    31    32   ar
    42    32    27   ar
    43    12     2   ar
    44    20    15   ar
    45    10     4   ar
    46    25    26    1
@<TRIPOS>MOLECULE
*****
 43 46 0 0 0
SMALL
GASTEIGER

@<TRIPOS>ATOM
      1 C         142.0137  142.2197  163.2325 C.3     1  UNL1        0.0799
      2 C         142.3500  142.2558  164.6940 C.ar    1  UNL1        0.0374
      3 C         141.4832  141.5317  165.6811 C.ar    1  UNL1        0.0023
      4 C         141.8194  141.5678  167.1424 C.ar    1  UNL1        0.0181
      5 C         140.9526  140.8437  168.1295 C.ar    1  UNL1        0.0082
      6 C         141.2889  140.8798  169.5910 C.ar    1  UNL1        0.0347
      7 BR        140.4221  140.1556  170.5781 Br      1  UNL1       -0.0490
      8 C         142.4919  141.6399  170.0652 C.ar    1  UNL1        0.0082
      9 C         143.3586  142.3640  169.0781 C.ar    1  UNL1        0.0197
     10 C         143.0224  142.3280  167.6168 C.ar    1  UNL1        0.0844
     11 N         143.8892  143.0521  166.6297 N.ar    1  UNL1       -0.2119
     12 C         143.5530  143.0160  165.1682 C.ar    1  UNL1        0.2211
     13 O         144.4197  143.7401  164.1811 O.3     1  UNL1       -0.4563
     14 C         143.9381  145.1606  164.1721 C.3     1  UNL1        0.2542
     15 C         141.3652  143.4059  162.5827 C.ar    1  UNL1        0.0148
     16 C         140.1983  144.0782  163.2432 C.ar    1  UNL1       -0.0014
     17 C         139.5497  145.2643  162.5933 C.ar    1  UNL1        0.0029
     18 C         140.0681  145.7782  161.2828 C.ar    1  UNL1        0.0392
     19 C         141.2350  145.1059  160.6223 C.ar    1  UNL1        0.1657
     20 C         141.8835  143.9197  161.2722 C.ar    1  UNL1        0.1702
     21 F         143.0505  143.2474  160.6117 F       1  UNL1       -0.2013
     22 O         141.7533  145.6197  159.3119 O.3     1  UNL1       -0.4692
     23 C         140.9152  145.4974  158.0739 C.3     1  UNL1        0.2526
     24 C         142.3261  140.9975  162.4211 C.3     1  UNL1        0.1161
     25 O         143.7905  141.2064  162.6699 O.3     1  UNL1       -0.3820
     26 H         144.2965  140.5063  162.2289 H       1  UNL1        0.2107
     27 C         138.4824  140.2479  163.0647 C.ar    1  UNL1        0.2259
     28 C         139.9468  140.4568  163.3136 C.ar    1  UNL1        0.0558
     29 C         140.8617  140.7885  162.1722 C.ar    1  UNL1        0.0098
     30 C         140.3123  140.9112  160.7819 C.ar    1  UNL1        0.0361
     31 C         138.8479  140.7022  160.5330 C.ar    1  UNL1        0.1888
     32 N         137.9330  140.3706  161.6744 N.ar    1  UNL1       -0.1930
     33 S         138.2984  140.8249  159.1426 S.O2    1  UNL1        0.0269
     34 C         137.7490  140.9476  157.7523 C.3     1  UNL1        0.1834
     35 O         139.3789  141.8081  158.8023 O.2     1  UNL1       -0.1671
     36 O         137.2178  139.8417  159.4828 O.2     1  UNL1       -0.1671
     37 C         138.1385  139.5837  165.5528 C.3     1  UNL1        0.2542
     38 O         137.5675  139.9162  164.2062 O.3     1  UNL1       -0.4561
     39 C         142.6384  139.7752  161.6096 C.3     1  UNL1        0.0491
     40 C         143.1634  138.5419  162.2830 C.3     1  UNL1        0.0750
     41 N         142.7234  138.2032  163.6764 N.3     1  UNL1       -0.2702
     42 C         141.4880  137.3807  163.8938 C.3     1  UNL1        0.0897
     43 C         143.5188  138.6872  164.8526 C.3     1  UNL1        0.0897
@<TRIPOS>BOND
     1    37    38    1
     2    38    27    1
     3    27    28   ar
     4    28    29   ar
     5    29    24    1
     6    24    25    1
     7    24    39    1
     8    39    40    1
     9    40    41    1
    10    41    42    1
    11    41    43    1
    12    24     1    1
    13     1     2    1
    14     2     3   ar
    15     3     4   ar
    16     4     5   ar
    17     5     6   ar
    18     6     7    1
    19     6     8   ar
    20     8     9   ar
    21     9    10   ar
    22    10    11   ar
    23    11    12   ar
    24    12    13    1
    25    13    14    1
    26     1    15    1
    27    15    16   ar
    28    16    17   ar
    29    17    18   ar
    30    18    19   ar
    31    19    22    1
    32    22    23    1
    33    19    20   ar
    34    20    21    1
    35    29    30   ar
    36    30    31   ar
    37    31    33    1
    38    33    34    1
    39    33    35    2
    40    33    36    2
    41    31    32   ar
    42    32    27   ar
    43    12     2   ar
    44    20    15   ar
    45    10     4   ar
    46    25    26    1
@<TRIPOS>MOLECULE
*****
 43 46 0 0 0
SMALL
GASTEIGER

@<TRIPOS>ATOM
      1 C         141.9016  141.8961  164.5850 C.3     1  UNL1        0.0799
      2 C         142.6473  142.1371  163.3060 C.ar    1  UNL1        0.0374
      3 C         141.9123  142.1395  161.9984 C.ar    1  UNL1        0.0023
      4 C         142.6580  142.3805  160.7194 C.ar    1  UNL1        0.0181
      5 C         141.9230  142.3829  159.4118 C.ar    1  UNL1        0.0082
      6 C         142.6688  142.6239  158.1327 C.ar    1  UNL1        0.0347
      7 BR        141.9338  142.6263  156.8251 Br      1  UNL1       -0.0490
      8 C         144.1493  142.8627  158.1613 C.ar    1  UNL1        0.0082
      9 C         144.8843  142.8603  159.4690 C.ar    1  UNL1        0.0197
     10 C         144.1386  142.6193  160.7479 C.ar    1  UNL1        0.0844
     11 N         144.8736  142.6169  162.0556 N.ar    1  UNL1       -0.2119
     12 C         144.1278  142.3759  163.3346 C.ar    1  UNL1        0.2211
     13 O         144.8628  142.3735  164.6422 O.3     1  UNL1       -0.4563
     14 C         144.7553  143.7699  165.1793 C.3     1  UNL1        0.2542
     15 C         142.3586  140.8237  165.5290 C.ar    1  UNL1        0.0148
     16 C         142.6163  139.4364  165.0200 C.ar    1  UNL1       -0.0014
     17 C         143.0734  138.3641  165.9640 C.ar    1  UNL1        0.0029
     18 C         143.2728  138.6790  167.4170 C.ar    1  UNL1        0.0392
     19 C         143.0151  140.0663  167.9259 C.ar    1  UNL1        0.1657
     20 C         142.5580  141.1386  166.9819 C.ar    1  UNL1        0.1702
     21 F         142.3003  142.5259  167.4909 F       1  UNL1       -0.2013
     22 O         143.2144  140.3812  169.3789 O.3     1  UNL1       -0.4692
     23 C         142.6019  139.5013  170.4279 C.3     1  UNL1        0.2526
     24 C         140.6988  142.7274  164.9200 C.3     1  UNL1        0.1161
     25 O         141.5246  143.9732  164.7933 O.3     1  UNL1       -0.3820
     26 H         140.9693  144.7486  164.9703 H       1  UNL1        0.2107
     27 C         138.6778  139.7157  166.5309 C.ar    1  UNL1        0.2259
     28 C         139.5036  140.9615  166.4042 C.ar    1  UNL1        0.0558
     29 C         139.8730  141.4816  165.0467 C.ar    1  UNL1        0.0098
     30 C         139.4166  140.7560  163.8158 C.ar    1  UNL1        0.0361
     31 C         138.5908  139.5102  163.9425 C.ar    1  UNL1        0.1888
     32 N         138.2214  138.9900  165.3000 N.ar    1  UNL1       -0.1930
     33 S         138.1344  138.7845  162.7115 S.O2    1  UNL1        0.0269
     34 C         137.6780  138.0588  161.4807 C.3     1  UNL1        0.1834
     35 O         137.5739  140.0640  162.1650 O.2     1  UNL1       -0.1671
     36 O         138.6949  137.5049  163.2580 O.2     1  UNL1       -0.1671
     37 C         138.8315  139.8744  169.1196 C.3     1  UNL1        0.2542
     38 O         138.3084  139.1955  167.8885 O.3     1  UNL1       -0.4561
     39 C         139.4960  143.5587  165.2550 C.3     1  UNL1        0.0491
     40 C         139.1921  144.7932  164.4588 C.3     1  UNL1        0.0750
     41 N         139.0752  144.7126  162.9655 N.3     1  UNL1       -0.2702
     42 C         138.1184  143.7417  162.3395 C.3     1  UNL1        0.0897
     43 C         139.9150  145.6029  162.0983 C.3     1  UNL1        0.0897
@<TRIPOS>BOND
     1    37    38    1
     2    38    27    1
     3    27    28   ar
     4    28    29   ar
     5    29    24    1
     6    24    25    1
     7    24    39    1
     8    39    40    1
     9    40    41    1
    10    41    42    1
    11    41    43    1
    12    24     1    1
    13     1     2    1
    14     2     3   ar
    15     3     4   ar
    16     4     5   ar
    17     5     6   ar
    18     6     7    1
    19     6     8   ar
    20     8     9   ar
    21     9    10   ar
    22    10    11   ar
    23    11    12   ar
    24    12    13    1
    25    13    14    1
    26     1    15    1
    27    15    16   ar
    28    16    17   ar
    29    17    18   ar
    30    18    19   ar
    31    19    22    1
    32    22    23    1
    33    19    20   ar
    34    20    21    1
    35    29    30   ar
    36    30    31   ar
    37    31    33    1
    38    33    34    1
    39    33    35    2
    40    33    36    2
    41    31    32   ar
    42    32    27   ar
    43    12     2   ar
    44    20    15   ar
    45    10     4   ar
    46    25    26    1
@<TRIPOS>MOLECULE
*****
 43 46 0 0 0
SMALL
GASTEIGER

@<TRIPOS>ATOM
      1 C         139.8500  141.4545  161.6019 C.3     1  UNL1        0.0799
      2 C         139.5713  140.9682  162.9932 C.ar    1  UNL1        0.0374
      3 C         140.3894  141.4762  164.1433 C.ar    1  UNL1        0.0023
      4 C         140.1107  140.9899  165.5346 C.ar    1  UNL1        0.0181
      5 C         140.9288  141.4979  166.6846 C.ar    1  UNL1        0.0082
      6 C         140.6500  141.0115  168.0760 C.ar    1  UNL1        0.0347
      7 BR        141.4681  141.5195  169.2260 Br      1  UNL1       -0.0490
      8 C         139.5532  140.0171  168.3172 C.ar    1  UNL1        0.0082
      9 C         138.7351  139.5091  167.1672 C.ar    1  UNL1        0.0197
     10 C         139.0138  139.9954  165.7759 C.ar    1  UNL1        0.0844
     11 N         138.1957  139.4874  164.6258 N.ar    1  UNL1       -0.2119
     12 C         138.4745  139.9738  163.2345 C.ar    1  UNL1        0.2211
     13 O         137.6564  139.4658  162.0844 O.3     1  UNL1       -0.4563
     14 C         137.9842  138.0077  161.9561 C.3     1  UNL1        0.2542
     15 C         140.1015  140.4692  160.4992 C.ar    1  UNL1        0.0148
     16 C         141.2374  139.4957  160.6079 C.ar    1  UNL1       -0.0014
     17 C         141.4889  138.5104  159.5053 C.ar    1  UNL1        0.0029
     18 C         140.6044  138.4985  158.2938 C.ar    1  UNL1        0.0392
     19 C         139.4684  139.4721  158.1851 C.ar    1  UNL1        0.1657
     20 C         139.2170  140.4574  159.2878 C.ar    1  UNL1        0.1702
     21 F         138.0810  141.4310  159.1791 F       1  UNL1       -0.2013
     22 O         138.5839  139.4603  156.9737 O.3     1  UNL1       -0.4692
     23 C         139.0594  138.8183  155.7042 C.3     1  UNL1        0.2526
     24 C         139.8773  142.9263  161.3132 C.3     1  UNL1        0.1161
     25 O         138.4312  143.0286  161.6983 O.3     1  UNL1       -0.3820
     26 H         138.1361  143.9479  161.6053 H       1  UNL1        0.2107
     27 C         143.1876  142.9735  159.1248 C.ar    1  UNL1        0.2259
     28 C         141.7415  143.0759  159.5098 C.ar    1  UNL1        0.0558
     29 C         141.3234  142.8239  160.9282 C.ar    1  UNL1        0.0098
     30 C         142.3514  142.4697  161.9614 C.ar    1  UNL1        0.0361
     31 C         143.7975  142.3674  161.5763 C.ar    1  UNL1        0.1888
     32 N         144.2156  142.6193  160.1580 N.ar    1  UNL1       -0.1930
     33 S         144.8256  142.0131  162.6097 S.O2    1  UNL1        0.0269
     34 C         145.8535  141.6589  163.6430 C.3     1  UNL1        0.1834
     35 O         144.9741  140.6527  161.9956 O.2     1  UNL1       -0.1671
     36 O         144.6770  143.3736  163.2239 O.2     1  UNL1       -0.1671
     37 C         142.5897  143.6559  156.6902 C.3     1  UNL1        0.2542
     38 O         143.6057  143.2255  157.7064 O.3     1  UNL1       -0.4561
     39 C         139.9046  144.3980  161.0246 C.3     1  UNL1        0.0491
     40 C         139.5803  145.3813  162.1100 C.3     1  UNL1        0.0750
     41 N         140.0364  145.1241  163.5157 N.3     1  UNL1       -0.2702
     42 C         139.0331  144.7971  164.5817 C.3     1  UNL1        0.0897
     43 C         141.4958  145.1941  163.8553 C.3     1  UNL1        0.0897
@<TRIPOS>BOND
     1    37    38    1
     2    38    27    1
     3    27    28   ar
     4    28    29   ar
     5    29    24    1
     6    24    25    1
     7    24    39    1
     8    39    40    1
     9    40    41    1
    10    41    42    1
    11    41    43    1
    12    24     1    1
    13     1     2    1
    14     2     3   ar
    15     3     4   ar
    16     4     5   ar
    17     5     6   ar
    18     6     7    1
    19     6     8   ar
    20     8     9   ar
    21     9    10   ar
    22    10    11   ar
    23    11    12   ar
    24    12    13    1
    25    13    14    1
    26     1    15    1
    27    15    16   ar
    28    16    17   ar
    29    17    18   ar
    30    18    19   ar
    31    19    22    1
    32    22    23    1
    33    19    20   ar
    34    20    21    1
    35    29    30   ar
    36    30    31   ar
    37    31    33    1
    38    33    34    1
    39    33    35    2
    40    33    36    2
    41    31    32   ar
    42    32    27   ar
    43    12     2   ar
    44    20    15   ar
    45    10     4   ar
    46    25    26    1
@<TRIPOS>MOLECULE
*****
 43 46 0 0 0
SMALL
GASTEIGER

@<TRIPOS>ATOM
      1 C         141.5198  140.5335  163.5437 C.3     1  UNL1        0.0799
      2 C         141.7132  140.3620  165.0214 C.ar    1  UNL1        0.0374
      3 C         140.9089  141.1852  165.9835 C.ar    1  UNL1        0.0023
      4 C         141.1023  141.0137  167.4610 C.ar    1  UNL1        0.0181
      5 C         140.2980  141.8368  168.4232 C.ar    1  UNL1        0.0082
      6 C         140.4914  141.6653  169.9008 C.ar    1  UNL1        0.0347
      7 BR        139.6872  142.4884  170.8629 Br      1  UNL1       -0.0490
      8 C         141.4889  140.6708  170.4162 C.ar    1  UNL1        0.0082
      9 C         142.2932  139.8476  169.4541 C.ar    1  UNL1        0.0197
     10 C         142.0999  140.0191  167.9765 C.ar    1  UNL1        0.0844
     11 N         142.9041  139.1960  167.0144 N.ar    1  UNL1       -0.2119
     12 C         142.7107  139.3675  165.5368 C.ar    1  UNL1        0.2211
     13 O         143.5150  138.5444  164.5746 O.3     1  UNL1       -0.4563
     14 C         144.8852  139.1543  164.5537 C.3     1  UNL1        0.2542
     15 C         142.5186  141.3146  162.7423 C.ar    1  UNL1        0.0148
     16 C         143.2886  140.6434  161.6439 C.ar    1  UNL1       -0.0014
     17 C         144.2873  141.4245  160.8425 C.ar    1  UNL1        0.0029
     18 C         144.5161  142.8769  161.1395 C.ar    1  UNL1        0.0392
     19 C         143.7461  143.5482  162.2379 C.ar    1  UNL1        0.1657
     20 C         142.7473  142.7670  163.0393 C.ar    1  UNL1        0.1702
     21 F         141.9773  143.4383  164.1377 F       1  UNL1       -0.2013
     22 O         143.9748  145.0006  162.5348 O.3     1  UNL1       -0.4692
     23 C         143.9157  145.4951  163.9497 C.3     1  UNL1        0.2526
     24 C         140.3277  139.9239  162.8676 C.3     1  UNL1        0.1161
     25 O         140.8408  138.5537  163.1983 O.3     1  UNL1       -0.3820
     26 H         140.2246  137.8867  162.8573 H       1  UNL1        0.2107
     27 C         138.5487  143.4522  163.2371 C.ar    1  UNL1        0.2259
     28 C         139.0619  142.0820  163.5678 C.ar    1  UNL1        0.0558
     29 C         139.8145  141.2941  162.5370 C.ar    1  UNL1        0.0098
     30 C         140.0540  141.8763  161.1755 C.ar    1  UNL1        0.0361
     31 C         139.5409  143.2464  160.8449 C.ar    1  UNL1        0.1888
     32 N         138.7882  144.0344  161.8757 N.ar    1  UNL1       -0.1930
     33 S         139.7804  143.8287  159.4833 S.O2    1  UNL1        0.0269
     34 C         140.0200  144.4109  158.1219 C.3     1  UNL1        0.1834
     35 O         138.5669  143.1156  158.9649 O.2     1  UNL1       -0.1671
     36 O         140.9940  144.5418  160.0018 O.2     1  UNL1       -0.1671
     37 C         138.5330  144.8863  165.4035 C.3     1  UNL1        0.2542
     38 O         137.7960  144.2401  164.2680 O.3     1  UNL1       -0.4561
     39 C         139.1355  139.3143  162.1915 C.3     1  UNL1        0.0491
     40 C         139.3250  138.2386  161.1634 C.3     1  UNL1        0.0750
     41 N         140.0458  138.5429  159.8836 N.3     1  UNL1       -0.2702
     42 C         141.5055  138.2240  159.7508 C.3     1  UNL1        0.0897
     43 C         139.3069  139.1662  158.7366 C.3     1  UNL1        0.0897
@<TRIPOS>BOND
     1    37    38    1
     2    38    27    1
     3    27    28   ar
     4    28    29   ar
     5    29    24    1
     6    24    25    1
     7    24    39    1
     8    39    40    1
     9    40    41    1
    10    41    42    1
    11    41    43    1
    12    24     1    1
    13     1     2    1
    14     2     3   ar
    15     3     4   ar
    16     4     5   ar
    17     5     6   ar
    18     6     7    1
    19     6     8   ar
    20     8     9   ar
    21     9    10   ar
    22    10    11   ar
    23    11    12   ar
    24    12    13    1
    25    13    14    1
    26     1    15    1
    27    15    16   ar
    28    16    17   ar
    29    17    18   ar
    30    18    19   ar
    31    19    22    1
    32    22    23    1
    33    19    20   ar
    34    20    21    1
    35    29    30   ar
    36    30    31   ar
    37    31    33    1
    38    33    34    1
    39    33    35    2
    40    33    36    2
    41    31    32   ar
    42    32    27   ar
    43    12     2   ar
    44    20    15   ar
    45    10     4   ar
    46    25    26    1
