@<TRIPOS>MOLECULE
*****
 28 32 0 0 0
SMALL
GASTEIGER

@<TRIPOS>ATOM
      1 C         141.8535  140.5840  163.5597 C.3     1  UNL1        0.2387
      2 O         141.9896  140.4290  163.1763 O.2     1  UNL1       -0.4451
      3 C         141.7871  140.6607  163.7187 C.2     1  UNL1        0.3207
      4 N         139.5087  143.5640  163.1458 N.pl3   1  UNL1       -0.0691
      5 N         141.9336  140.4922  163.3449 N.2     1  UNL1       -0.2137
      6 C         141.9032  140.5254  163.4613 C.3     1  UNL1        0.1634
      7 C         141.9761  140.3674  164.9512 C.ar    1  UNL1        0.0013
      8 C         141.3347  141.1278  166.0738 C.ar    1  UNL1       -0.0023
      9 C         141.5991  140.7308  167.4959 C.ar    1  UNL1        0.0027
     10 C         142.5050  139.5733  167.7954 C.ar    1  UNL1       -0.0002
     11 C         143.1464  138.8129  166.6728 C.ar    1  UNL1       -0.0042
     12 C         142.8820  139.2099  165.2507 C.ar    1  UNL1       -0.0198
     13 C         143.3689  138.6527  163.9460 C.3     1  UNL1        0.0508
     14 C         142.7640  139.4657  162.8401 C.2     1  UNL1       -0.0082
     15 C         143.6573  138.3584  162.3648 C.2     1  UNL1       -0.0024
     16 C         143.8750  138.1486  160.8956 C.2     1  UNL1        0.0360
     17 C         143.1994  139.0460  159.9016 C.2     1  UNL1        0.1347
     18 C         142.3061  140.1533  160.3768 C.2     1  UNL1        0.0116
     19 C         141.6304  141.0508  159.3828 C.3     1  UNL1        0.0342
     20 C         142.0884  140.3632  161.8461 C.2     1  UNL1       -0.0067
     21 C         140.9577  141.4913  168.6186 C.ar    1  UNL1        0.0384
     22 C         140.5264  140.7714  169.8619 C.ar    1  UNL1        0.1022
     23 N         139.8850  141.5318  170.9845 N.ar    1  UNL1       -0.2224
     24 C         139.6749  143.0121  170.8639 C.ar    1  UNL1        0.1989
     25 N         140.1061  143.7320  169.6206 N.ar    1  UNL1       -0.2224
     26 C         140.7475  142.9715  168.4979 C.ar    1  UNL1        0.1022
     27 O         143.4170  138.8362  158.4324 O.2     1  UNL1       -0.4717
     28 C         142.6862  137.7403  157.7149 C.3     1  UNL1        0.2525
@<TRIPOS>BOND
     1     1     2    1
     2     2     3    1
     3     3     4    1
     4     3     5    2
     5     5     6    1
     6     6     7    1
     7     7     8   ar
     8     8     9   ar
     9     9    21    1
    10    21    22   ar
    11    22    23   ar
    12    23    24   ar
    13    24    25   ar
    14    25    26   ar
    15     9    10   ar
    16    10    11   ar
    17    11    12   ar
    18    12    13    1
    19    14    13    1
    20    14    15    2
    21    15    16    1
    22    16    17    2
    23    17    27    1
    24    27    28    1
    25    17    18    1
    26    18    19    1
    27    18    20    2
    28     6     1    1
    29    12     7   ar
    30    20    14    1
    31    14     6    1
    32    26    21   ar
@<TRIPOS>MOLECULE
*****
 28 32 0 0 0
SMALL
GASTEIGER

@<TRIPOS>ATOM
      1 C         140.9030  143.5629  164.3578 C.3     1  UNL1        0.2387
      2 O         140.9469  143.7076  163.9497 O.2     1  UNL1       -0.4451
      3 C         140.8740  143.5099  164.5365 C.2     1  UNL1        0.3207
      4 N         138.2354  145.4960  166.2805 N.pl3   1  UNL1       -0.0691
      5 N         140.9318  143.6412  164.1255 N.2     1  UNL1       -0.2137
      6 C         140.9304  143.5894  164.2391 C.3     1  UNL1        0.1634
      7 C         141.4155  142.5976  165.2545 C.ar    1  UNL1        0.0013
      8 C         141.0221  142.3469  166.6801 C.ar    1  UNL1       -0.0023
      9 C         141.6974  141.2613  167.4646 C.ar    1  UNL1        0.0027
     10 C         142.7660  140.4264  166.8235 C.ar    1  UNL1       -0.0002
     11 C         143.1593  140.6771  165.3979 C.ar    1  UNL1       -0.0042
     12 C         142.4840  141.7627  164.6134 C.ar    1  UNL1       -0.0198
     13 C         142.6594  142.2385  163.2017 C.3     1  UNL1        0.0508
     14 C         141.6992  143.3674  162.9703 C.2     1  UNL1       -0.0082
     15 C         142.5432  143.0302  161.7771 C.2     1  UNL1       -0.0024
     16 C         142.3804  143.8017  160.5010 C.2     1  UNL1        0.0360
     17 C         141.3736  144.9105  160.4183 C.2     1  UNL1        0.1347
     18 C         140.5296  145.2477  161.6115 C.2     1  UNL1        0.0116
     19 C         139.5228  146.3566  161.5288 C.3     1  UNL1        0.0342
     20 C         140.6924  144.4762  162.8875 C.2     1  UNL1       -0.0067
     21 C         141.3041  141.0106  168.8903 C.ar    1  UNL1        0.0384
     22 C         142.0927  141.6300  170.0059 C.ar    1  UNL1        0.1022
     23 N         141.6995  141.3793  171.4315 N.ar    1  UNL1       -0.2224
     24 C         140.5176  140.5092  171.7416 C.ar    1  UNL1        0.1989
     25 N         139.7290  139.8898  170.6261 N.ar    1  UNL1       -0.2224
     26 C         140.1223  140.1405  169.2004 C.ar    1  UNL1        0.1022
     27 O         141.2108  145.6820  159.1422 O.2     1  UNL1       -0.4717
     28 C         140.3017  145.1678  158.0657 C.3     1  UNL1        0.2525
@<TRIPOS>BOND
     1     1     2    1
     2     2     3    1
     3     3     4    1
     4     3     5    2
     5     5     6    1
     6     6     7    1
     7     7     8   ar
     8     8     9   ar
     9     9    21    1
    10    21    22   ar
    11    22    23   ar
    12    23    24   ar
    13    24    25   ar
    14    25    26   ar
    15     9    10   ar
    16    10    11   ar
    17    11    12   ar
    18    12    13    1
    19    14    13    1
    20    14    15    2
    21    15    16    1
    22    16    17    2
    23    17    27    1
    24    27    28    1
    25    17    18    1
    26    18    19    1
    27    18    20    2
    28     6     1    1
    29    12     7   ar
    30    20    14    1
    31    14     6    1
    32    26    21   ar
@<TRIPOS>MOLECULE
*****
 28 32 0 0 0
SMALL
GASTEIGER

@<TRIPOS>ATOM
      1 C         139.5124  141.5804  163.7465 C.3     1  UNL1        0.2387
      2 O         139.3816  141.5224  163.3354 O.2     1  UNL1       -0.4451
      3 C         139.5761  141.6169  163.9203 C.2     1  UNL1        0.3207
      4 N         141.7512  144.6466  164.1148 N.pl3   1  UNL1       -0.0691
      5 N         139.4354  141.5430  163.5150 N.2     1  UNL1       -0.2137
      6 C         139.4646  141.5469  163.6363 C.3     1  UNL1        0.1634
      7 C         139.3980  141.0167  165.0379 C.ar    1  UNL1        0.0013
      8 C         140.0128  141.4917  166.3209 C.ar    1  UNL1       -0.0023
      9 C         139.7631  140.7411  167.5953 C.ar    1  UNL1        0.0027
     10 C         138.8984  139.5154  167.5866 C.ar    1  UNL1       -0.0002
     11 C         138.2835  139.0404  166.3036 C.ar    1  UNL1       -0.0042
     12 C         138.5333  139.7911  165.0292 C.ar    1  UNL1       -0.0198
     13 C         138.0656  139.5637  163.6222 C.3     1  UNL1        0.0508
     14 C         138.6412  140.6488  162.7613 C.2     1  UNL1       -0.0082
     15 C         137.7870  139.6670  162.0155 C.2     1  UNL1       -0.0024
     16 C         137.5762  139.8261  160.5390 C.2     1  UNL1        0.0360
     17 C         138.2196  140.9672  159.8082 C.2     1  UNL1        0.1347
     18 C         139.0738  141.9490  160.5540 C.2     1  UNL1        0.0116
     19 C         139.7173  143.0901  159.8232 C.3     1  UNL1        0.0342
     20 C         139.2846  141.7899  162.0306 C.2     1  UNL1       -0.0067
     21 C         140.3780  141.2161  168.8784 C.ar    1  UNL1        0.0384
     22 C         140.0523  140.5225  170.1680 C.ar    1  UNL1        0.1022
     23 N         140.6671  140.9975  171.4511 N.ar    1  UNL1       -0.2224
     24 C         141.6077  142.1660  171.4447 C.ar    1  UNL1        0.1989
     25 N         141.9334  142.8595  170.1551 N.ar    1  UNL1       -0.2224
     26 C         141.3185  142.3845  168.8720 C.ar    1  UNL1        0.1022
     27 O         138.0088  141.1263  158.3317 O.2     1  UNL1       -0.4717
     28 C         138.7996  140.2932  157.3670 C.3     1  UNL1        0.2525
@<TRIPOS>BOND
     1     1     2    1
     2     2     3    1
     3     3     4    1
     4     3     5    2
     5     5     6    1
     6     6     7    1
     7     7     8   ar
     8     8     9   ar
     9     9    21    1
    10    21    22   ar
    11    22    23   ar
    12    23    24   ar
    13    24    25   ar
    14    25    26   ar
    15     9    10   ar
    16    10    11   ar
    17    11    12   ar
    18    12    13    1
    19    14    13    1
    20    14    15    2
    21    15    16    1
    22    16    17    2
    23    17    27    1
    24    27    28    1
    25    17    18    1
    26    18    19    1
    27    18    20    2
    28     6     1    1
    29    12     7   ar
    30    20    14    1
    31    14     6    1
    32    26    21   ar
@<TRIPOS>MOLECULE
*****
 28 32 0 0 0
SMALL
GASTEIGER

@<TRIPOS>ATOM
      1 C         139.4941  141.6660  164.0702 C.3     1  UNL1        0.2387
      2 O         139.5070  141.5337  164.4847 O.2     1  UNL1       -0.4451
      3 C         139.4814  141.7116  163.8877 C.2     1  UNL1        0.3207
      4 N         137.6391  139.1918  161.8372 N.pl3   1  UNL1       -0.0691
      5 N         139.5043  141.5955  164.3066 N.2     1  UNL1       -0.2137
      6 C         139.5086  141.6460  164.1925 C.3     1  UNL1        0.1634
      7 C         139.9101  142.7233  163.2290 C.ar    1  UNL1        0.0013
      8 C         139.6902  142.8834  161.7539 C.ar    1  UNL1       -0.0023
      9 C         140.2196  144.0940  161.0439 C.ar    1  UNL1        0.0027
     10 C         140.9688  145.1444  161.8089 C.ar    1  UNL1       -0.0002
     11 C         141.1886  144.9843  163.2840 C.ar    1  UNL1       -0.0042
     12 C         140.6593  143.7737  163.9941 C.ar    1  UNL1       -0.0198
     13 C         140.7208  143.3456  165.4304 C.3     1  UNL1        0.0508
     14 C         140.0097  142.0306  165.5530 C.2     1  UNL1       -0.0082
     15 C         140.5691  142.5446  166.8464 C.2     1  UNL1       -0.0024
     16 C         140.3904  141.7531  168.1080 C.2     1  UNL1        0.0360
     17 C         139.6522  140.4477  168.0763 C.2     1  UNL1        0.1347
     18 C         139.0928  139.9338  166.7830 C.2     1  UNL1        0.0116
     19 C         138.3546  138.6283  166.7512 C.3     1  UNL1        0.0342
     20 C         139.2715  140.7252  165.5213 C.2     1  UNL1       -0.0067
     21 C         139.9998  144.2542  159.5687 C.ar    1  UNL1        0.0384
     22 C         139.2918  143.1817  158.7951 C.ar    1  UNL1        0.1022
     23 N         139.0719  143.3418  157.3200 N.ar    1  UNL1       -0.2224
     24 C         139.5601  144.5746  156.6184 C.ar    1  UNL1        0.1989
     25 N         140.2681  145.6471  157.3920 N.ar    1  UNL1       -0.2224
     26 C         140.4879  145.4869  158.8672 C.ar    1  UNL1        0.1022
     27 O         139.4735  139.6563  169.3379 O.2     1  UNL1       -0.4717
     28 C         140.2102  140.0531  170.5829 C.3     1  UNL1        0.2525
@<TRIPOS>BOND
     1     1     2    1
     2     2     3    1
     3     3     4    1
     4     3     5    2
     5     5     6    1
     6     6     7    1
     7     7     8   ar
     8     8     9   ar
     9     9    21    1
    10    21    22   ar
    11    22    23   ar
    12    23    24   ar
    13    24    25   ar
    14    25    26   ar
    15     9    10   ar
    16    10    11   ar
    17    11    12   ar
    18    12    13    1
    19    14    13    1
    20    14    15    2
    21    15    16    1
    22    16    17    2
    23    17    27    1
    24    27    28    1
    25    17    18    1
    26    18    19    1
    27    18    20    2
    28     6     1    1
    29    12     7   ar
    30    20    14    1
    31    14     6    1
    32    26    21   ar
@<TRIPOS>MOLECULE
*****
 28 32 0 0 0
SMALL
GASTEIGER

@<TRIPOS>ATOM
      1 C         141.3370  139.4155  163.5124 C.3     1  UNL1        0.2387
      2 O         141.2812  139.3273  163.0898 O.2     1  UNL1       -0.4451
      3 C         141.3746  139.4563  163.6926 C.2     1  UNL1        0.3207
      4 N         144.9381  140.3914  164.3052 N.pl3   1  UNL1       -0.0691
      5 N         141.3000  139.3644  163.2737 N.2     1  UNL1       -0.2137
      6 C         141.3008  139.3865  163.3965 C.3     1  UNL1        0.1634
      7 C         140.6334  139.4704  164.7372 C.ar    1  UNL1        0.0013
      8 C         141.1537  139.8331  166.0965 C.ar    1  UNL1       -0.0023
      9 C         140.2303  139.8295  167.2785 C.ar    1  UNL1        0.0027
     10 C         138.7866  139.4632  167.1013 C.ar    1  UNL1       -0.0002
     11 C         138.2662  139.1006  165.7420 C.ar    1  UNL1       -0.0042
     12 C         139.1896  139.1042  164.5600 C.ar    1  UNL1       -0.0198
     13 C         138.9648  138.7939  163.1098 C.3     1  UNL1        0.0508
     14 C         140.2696  138.9683  162.3907 C.2     1  UNL1       -0.0082
     15 C         139.1356  138.5476  161.5036 C.2     1  UNL1       -0.0024
     16 C         139.3683  138.3403  160.0363 C.2     1  UNL1        0.0360
     17 C         140.7350  138.5538  159.4561 C.2     1  UNL1        0.1347
     18 C         141.8689  138.9746  160.3433 C.2     1  UNL1        0.0116
     19 C         143.2357  139.1881  159.7631 C.3     1  UNL1        0.0342
     20 C         141.6362  139.1818  161.8105 C.2     1  UNL1       -0.0067
     21 C         140.7507  140.1921  168.6379 C.ar    1  UNL1        0.0384
     22 C         139.7925  140.4933  169.7520 C.ar    1  UNL1        0.1022
     23 N         140.3127  140.8559  171.1113 N.ar    1  UNL1       -0.2224
     24 C         141.7913  140.9173  171.3566 C.ar    1  UNL1        0.1989
     25 N         142.7495  140.6162  170.2425 N.ar    1  UNL1       -0.2224
     26 C         142.2292  140.2535  168.8832 C.ar    1  UNL1        0.1022
     27 O         140.9677  138.3465  157.9889 O.2     1  UNL1       -0.4717
     28 C         139.9057  137.7076  157.1440 C.3     1  UNL1        0.2525
@<TRIPOS>BOND
     1     1     2    1
     2     2     3    1
     3     3     4    1
     4     3     5    2
     5     5     6    1
     6     6     7    1
     7     7     8   ar
     8     8     9   ar
     9     9    21    1
    10    21    22   ar
    11    22    23   ar
    12    23    24   ar
    13    24    25   ar
    14    25    26   ar
    15     9    10   ar
    16    10    11   ar
    17    11    12   ar
    18    12    13    1
    19    14    13    1
    20    14    15    2
    21    15    16    1
    22    16    17    2
    23    17    27    1
    24    27    28    1
    25    17    18    1
    26    18    19    1
    27    18    20    2
    28     6     1    1
    29    12     7   ar
    30    20    14    1
    31    14     6    1
    32    26    21   ar
@<TRIPOS>MOLECULE
*****
 28 32 0 0 0
SMALL
GASTEIGER

@<TRIPOS>ATOM
      1 C         140.9341  140.0569  164.2996 C.3     1  UNL1        0.2387
      2 O         141.0757  139.9992  164.7071 O.2     1  UNL1       -0.4451
      3 C         140.8829  140.0731  164.1188 C.2     1  UNL1        0.3207
      4 N         142.9864  138.0625  161.7777 N.pl3   1  UNL1       -0.0691
      5 N         141.0105  140.0276  164.5325 N.2     1  UNL1       -0.2137
      6 C         140.9591  140.0536  164.4218 C.3     1  UNL1        0.1634
      7 C         139.9498  140.7443  163.5533 C.ar    1  UNL1        0.0013
      8 C         139.7202  140.7248  162.0711 C.ar    1  UNL1       -0.0023
      9 C         138.6083  141.5352  161.4737 C.ar    1  UNL1        0.0027
     10 C         137.7260  142.3651  162.3585 C.ar    1  UNL1       -0.0002
     11 C         137.9557  142.3847  163.8407 C.ar    1  UNL1       -0.0042
     12 C         139.0675  141.5743  164.4380 C.ar    1  UNL1       -0.0198
     13 C         139.5316  141.3965  165.8533 C.3     1  UNL1        0.0508
     14 C         140.7006  140.4567  165.8433 C.2     1  UNL1       -0.0082
     15 C         140.3239  140.9471  167.2099 C.2     1  UNL1       -0.0024
     16 C         141.0984  140.4905  168.4105 C.2     1  UNL1        0.0360
     17 C         142.2497  139.5435  168.2446 C.2     1  UNL1        0.1347
     18 C         142.6265  139.0530  166.8781 C.2     1  UNL1        0.0116
     19 C         143.7778  138.1059  166.7121 C.3     1  UNL1        0.0342
     20 C         141.8519  139.5096  165.6774 C.2     1  UNL1       -0.0067
     21 C         138.3786  141.5157  159.9915 C.ar    1  UNL1        0.0384
     22 C         137.8883  140.2645  159.3250 C.ar    1  UNL1        0.1022
     23 N         137.6586  140.2449  157.8428 N.ar    1  UNL1       -0.2224
     24 C         137.9192  141.4766  157.0271 C.ar    1  UNL1        0.1989
     25 N         138.4094  142.7277  157.6937 N.ar    1  UNL1       -0.2224
     26 C         138.6391  142.7472  159.1759 C.ar    1  UNL1        0.1022
     27 O         143.0243  139.0868  169.4453 O.2     1  UNL1       -0.4717
     28 C         143.0347  139.9202  170.6924 C.3     1  UNL1        0.2525
@<TRIPOS>BOND
     1     1     2    1
     2     2     3    1
     3     3     4    1
     4     3     5    2
     5     5     6    1
     6     6     7    1
     7     7     8   ar
     8     8     9   ar
     9     9    21    1
    10    21    22   ar
    11    22    23   ar
    12    23    24   ar
    13    24    25   ar
    14    25    26   ar
    15     9    10   ar
    16    10    11   ar
    17    11    12   ar
    18    12    13    1
    19    14    13    1
    20    14    15    2
    21    15    16    1
    22    16    17    2
    23    17    27    1
    24    27    28    1
    25    17    18    1
    26    18    19    1
    27    18    20    2
    28     6     1    1
    29    12     7   ar
    30    20    14    1
    31    14     6    1
    32    26    21   ar
@<TRIPOS>MOLECULE
*****
 28 32 0 0 0
SMALL
GASTEIGER

@<TRIPOS>ATOM
      1 C         141.3091  139.7768  164.8813 C.3     1  UNL1        0.2387
      2 O         141.2276  139.8559  165.3015 O.2     1  UNL1       -0.4451
      3 C         141.3572  139.7478  164.7013 C.2     1  UNL1        0.3207
      4 N         144.8471  140.8041  163.8932 N.pl3   1  UNL1       -0.0691
      5 N         141.2578  139.8196  165.1190 N.2     1  UNL1       -0.2137
      6 C         141.2665  139.7915  164.9977 C.3     1  UNL1        0.1634
      7 C         140.7072  139.2567  163.7127 C.ar    1  UNL1        0.0013
      8 C         141.2991  139.1170  162.3416 C.ar    1  UNL1       -0.0023
      9 C         140.4817  138.5328  161.2278 C.ar    1  UNL1        0.0027
     10 C         139.0724  138.0884  161.4851 C.ar    1  UNL1       -0.0002
     11 C         138.4805  138.2281  162.8563 C.ar    1  UNL1       -0.0042
     12 C         139.2979  138.8122  163.9701 C.ar    1  UNL1       -0.0198
     13 C         138.9862  139.0724  165.4141 C.3     1  UNL1        0.0508
     14 C         140.2029  139.6776  166.0492 C.2     1  UNL1       -0.0082
     15 C         139.0475  139.5017  166.9894 C.2     1  UNL1       -0.0024
     16 C         139.1777  139.9196  168.4242 C.2     1  UNL1        0.0360
     17 C         140.4633  140.5134  168.9186 C.2     1  UNL1        0.1347
     18 C         141.6187  140.6893  167.9784 C.2     1  UNL1        0.0116
     19 C         142.9044  141.2832  168.4729 C.3     1  UNL1        0.0342
     20 C         141.4885  140.2714  166.5437 C.2     1  UNL1       -0.0067
     21 C         141.0736  138.3931  159.8566 C.ar    1  UNL1        0.0384
     22 C         142.5385  138.1125  159.6970 C.ar    1  UNL1        0.1022
     23 N         143.1304  137.9728  158.3259 N.ar    1  UNL1       -0.2224
     24 C         142.2574  138.1137  157.1142 C.ar    1  UNL1        0.1989
     25 N         140.7926  138.3942  157.2737 N.ar    1  UNL1       -0.2224
     26 C         140.2007  138.5340  158.6449 C.ar    1  UNL1        0.1022
     27 O         140.5935  140.9313  170.3533 O.2     1  UNL1       -0.4717
     28 C         140.1874  142.3133  170.7718 C.3     1  UNL1        0.2525
@<TRIPOS>BOND
     1     1     2    1
     2     2     3    1
     3     3     4    1
     4     3     5    2
     5     5     6    1
     6     6     7    1
     7     7     8   ar
     8     8     9   ar
     9     9    21    1
    10    21    22   ar
    11    22    23   ar
    12    23    24   ar
    13    24    25   ar
    14    25    26   ar
    15     9    10   ar
    16    10    11   ar
    17    11    12   ar
    18    12    13    1
    19    14    13    1
    20    14    15    2
    21    15    16    1
    22    16    17    2
    23    17    27    1
    24    27    28    1
    25    17    18    1
    26    18    19    1
    27    18    20    2
    28     6     1    1
    29    12     7   ar
    30    20    14    1
    31    14     6    1
    32    26    21   ar
@<TRIPOS>MOLECULE
*****
 28 32 0 0 0
SMALL
GASTEIGER

@<TRIPOS>ATOM
      1 C         141.6462  141.4770  164.0341 C.3     1  UNL1        0.2387
      2 O         141.7371  141.3311  164.4340 O.2     1  UNL1       -0.4451
      3 C         141.6135  141.5290  163.8557 C.2     1  UNL1        0.3207
      4 N         143.0196  139.1700  161.3246 N.pl3   1  UNL1       -0.0691
      5 N         141.6951  141.3986  164.2630 N.2     1  UNL1       -0.2137
      6 C         141.6619  141.4524  164.1554 C.3     1  UNL1        0.1634
      7 C         141.0005  142.5385  163.3598 C.ar    1  UNL1        0.0013
      8 C         140.8586  142.7562  161.8825 C.ar    1  UNL1       -0.0023
      9 C         140.1276  143.9610  161.3688 C.ar    1  UNL1        0.0027
     10 C         139.5385  144.9482  162.3324 C.ar    1  UNL1       -0.0002
     11 C         139.6804  144.7305  163.8097 C.ar    1  UNL1       -0.0042
     12 C         140.4114  143.5257  164.3234 C.ar    1  UNL1       -0.0198
     13 C         140.7087  143.0496  165.7144 C.3     1  UNL1        0.0508
     14 C         141.4815  141.7682  165.6106 C.2     1  UNL1       -0.0082
     15 C         141.2233  142.2124  167.0198 C.2     1  UNL1       -0.0024
     16 C         141.7273  141.3911  168.1694 C.2     1  UNL1        0.0360
     17 C         142.4895  140.1256  167.9097 C.2     1  UNL1        0.1347
     18 C         142.7477  139.6814  166.5005 C.2     1  UNL1        0.0116
     19 C         143.5099  138.4158  166.2407 C.3     1  UNL1        0.0342
     20 C         142.2437  140.5027  165.3509 C.2     1  UNL1       -0.0067
     21 C         139.9857  144.1788  159.8915 C.ar    1  UNL1        0.0384
     22 C         139.3219  143.1372  159.0402 C.ar    1  UNL1        0.1022
     23 N         139.1800  143.3549  157.5630 N.ar    1  UNL1       -0.2224
     24 C         139.7018  144.6142  156.9368 C.ar    1  UNL1        0.1989
     25 N         140.3655  145.6558  157.7880 N.ar    1  UNL1       -0.2224
     26 C         140.5074  145.4380  159.2654 C.ar    1  UNL1        0.1022
     27 O         142.9935  139.3043  169.0592 O.2     1  UNL1       -0.4717
     28 C         142.7559  139.7607  170.4682 C.3     1  UNL1        0.2525
@<TRIPOS>BOND
     1     1     2    1
     2     2     3    1
     3     3     4    1
     4     3     5    2
     5     5     6    1
     6     6     7    1
     7     7     8   ar
     8     8     9   ar
     9     9    21    1
    10    21    22   ar
    11    22    23   ar
    12    23    24   ar
    13    24    25   ar
    14    25    26   ar
    15     9    10   ar
    16    10    11   ar
    17    11    12   ar
    18    12    13    1
    19    14    13    1
    20    14    15    2
    21    15    16    1
    22    16    17    2
    23    17    27    1
    24    27    28    1
    25    17    18    1
    26    18    19    1
    27    18    20    2
    28     6     1    1
    29    12     7   ar
    30    20    14    1
    31    14     6    1
    32    26    21   ar
@<TRIPOS>MOLECULE
*****
 28 32 0 0 0
SMALL
GASTEIGER

@<TRIPOS>ATOM
      1 C         140.8176  141.8302  164.8465 C.3     1  UNL1        0.2387
      2 O         140.8347  141.6616  165.2475 O.2     1  UNL1       -0.4451
      3 C         140.7974  141.8975  164.6715 C.2     1  UNL1        0.3207
      4 N         137.5474  140.9793  163.0770 N.pl3   1  UNL1       -0.0691
      5 N         140.8323  141.7368  165.0746 N.2     1  UNL1       -0.2137
      6 C         140.8416  141.7910  164.9625 C.3     1  UNL1        0.1634
      7 C         141.5693  142.6076  163.9361 C.ar    1  UNL1        0.0013
      8 C         141.1986  143.0360  162.5473 C.ar    1  UNL1       -0.0023
      9 C         142.1504  143.8678  161.7398 C.ar    1  UNL1        0.0027
     10 C         143.4730  144.2712  162.3212 C.ar    1  UNL1       -0.0002
     11 C         143.8438  143.8429  163.7100 C.ar    1  UNL1       -0.0042
     12 C         142.8919  143.0110  164.5175 C.ar    1  UNL1       -0.0198
     13 C         142.9815  142.4437  165.9032 C.3     1  UNL1        0.0508
     14 C         141.7144  141.6897  166.1782 C.2     1  UNL1       -0.0082
     15 C         142.6920  141.6752  167.3158 C.2     1  UNL1       -0.0024
     16 C         142.3565  140.9476  168.5839 C.2     1  UNL1        0.0360
     17 C         141.0434  140.2345  168.7144 C.2     1  UNL1        0.1347
     18 C         140.0658  140.2489  167.5769 C.2     1  UNL1        0.0116
     19 C         138.7526  139.5357  167.7074 C.3     1  UNL1        0.0342
     20 C         140.4013  140.9765  166.3088 C.2     1  UNL1       -0.0067
     21 C         141.7797  144.2962  160.3509 C.ar    1  UNL1        0.0384
     22 C         140.6698  145.2834  160.1416 C.ar    1  UNL1        0.1022
     23 N         140.2991  145.7118  158.7528 N.ar    1  UNL1       -0.2224
     24 C         141.0382  145.1531  157.5731 C.ar    1  UNL1        0.1989
     25 N         142.1481  144.1660  157.7823 N.ar    1  UNL1       -0.2224
     26 C         142.5188  143.7376  159.1712 C.ar    1  UNL1        0.1022
     27 O         140.7079  139.5069  169.9825 O.2     1  UNL1       -0.4717
     28 C         140.4127  140.2786  171.2344 C.3     1  UNL1        0.2525
@<TRIPOS>BOND
     1     1     2    1
     2     2     3    1
     3     3     4    1
     4     3     5    2
     5     5     6    1
     6     6     7    1
     7     7     8   ar
     8     8     9   ar
     9     9    21    1
    10    21    22   ar
    11    22    23   ar
    12    23    24   ar
    13    24    25   ar
    14    25    26   ar
    15     9    10   ar
    16    10    11   ar
    17    11    12   ar
    18    12    13    1
    19    14    13    1
    20    14    15    2
    21    15    16    1
    22    16    17    2
    23    17    27    1
    24    27    28    1
    25    17    18    1
    26    18    19    1
    27    18    20    2
    28     6     1    1
    29    12     7   ar
    30    20    14    1
    31    14     6    1
    32    26    21   ar
