@<TRIPOS>MOLECULE
*****
 32 35 0 0 0
SMALL
GASTEIGER

@<TRIPOS>ATOM
      1 C         142.4541  142.1915  163.9573 C.ar    1  UNL1        0.0191
      2 C         143.1652  143.5058  163.8275 C.ar    1  UNL1        0.0023
      3 C         143.1704  144.2293  162.5135 C.ar    1  UNL1        0.0367
      4 C         142.4644  143.6383  161.3293 C.ar    1  UNL1        0.1385
      5 C         141.7533  142.3240  161.4591 C.ar    1  UNL1        0.0367
      6 C         141.7482  141.6006  162.7730 C.ar    1  UNL1        0.0023
      7 C         141.0228  141.9317  168.9457 C.ar    1  UNL1        0.1737
      8 C         141.0177  141.2083  170.2597 C.ar    1  UNL1        0.0401
      9 C         141.7231  139.8913  170.3935 C.ar    1  UNL1        0.0046
     10 C         142.4336  139.2977  169.2133 C.ar    1  UNL1        0.0217
     11 C         142.4387  140.0212  167.8994 C.ar    1  UNL1        0.1426
     12 C         141.7333  141.3382  167.7655 C.ar    1  UNL1        0.1895
     13 O         141.7385  142.0616  166.4515 O.3     1  UNL1       -0.4686
     14 C         142.4490  141.4680  165.2713 C.3     1  UNL1        0.2104
     15 C         143.1544  140.1510  165.4052 C.3     1  UNL1        0.1779
     16 C         143.8649  139.5575  164.2249 C.3     1  UNL1        0.0300
     17 S         143.1493  139.4276  166.7191 S.O2    1  UNL1        0.0138
     18 O         143.4241  138.3705  167.7473 O.2     1  UNL1       -0.1685
     19 O         143.9552  138.4669  165.8960 O.2     1  UNL1       -0.1685
     20 C         140.3338  144.2272  169.9486 C.3     1  UNL1        0.2526
     21 O         140.3174  143.2487  168.8119 O.3     1  UNL1       -0.4683
     22 O         142.4696  144.3618  160.0153 O.3     1  UNL1       -0.4754
     23 C         141.4061  145.3756  159.7131 C.3     1  UNL1        0.2068
     24 C         140.0374  145.2269  160.3083 C.3     1  UNL1        0.0646
     25 C         139.7663  145.7209  161.6985 C.3     1  UNL1        0.0759
     26 N         139.3470  144.7570  162.7685 N.3     1  UNL1       -0.2726
     27 C         139.7412  145.0018  164.1949 C.3     1  UNL1        0.0721
     28 C         139.3219  144.0378  165.2650 C.3     1  UNL1        0.0174
     29 C         138.5084  142.8291  164.9086 C.3     1  UNL1        0.0028
     30 C         138.1142  142.5842  163.4822 C.3     1  UNL1        0.0160
     31 C         137.3006  141.3753  163.1259 C.3     1  UNL1        0.0014
     32 C         138.5335  143.5481  162.4122 C.3     1  UNL1        0.0720
@<TRIPOS>BOND
     1    20    21    1
     2    21     7    1
     3     7     8   ar
     4     8     9   ar
     5     9    10   ar
     6    10    11   ar
     7    11    12   ar
     8    12    13    1
     9    13    14    1
    10    14     1    1
    11     1     2   ar
    12     2     3   ar
    13     3     4   ar
    14     4    22    1
    15    22    23    1
    16    23    24    1
    17    24    25    1
    18    25    26    1
    19    26    27    1
    20    27    28    1
    21    28    29    1
    22    29    30    1
    23    30    31    1
    24    30    32    1
    25     4     5   ar
    26     5     6   ar
    27    14    15    1
    28    15    16    1
    29    15    17    1
    30    17    18    2
    31    17    19    2
    32    12     7   ar
    33     6     1   ar
    34    17    11    1
    35    32    26    1
@<TRIPOS>MOLECULE
*****
 32 35 0 0 0
SMALL
GASTEIGER

@<TRIPOS>ATOM
      1 C         139.8815  141.2138  164.5171 C.ar    1  UNL1        0.0191
      2 C         139.5135  139.7743  164.7229 C.ar    1  UNL1        0.0023
      3 C         139.2554  139.2566  166.1068 C.ar    1  UNL1        0.0367
      4 C         139.3653  140.1784  167.2850 C.ar    1  UNL1        0.1385
      5 C         139.7333  141.6179  167.0792 C.ar    1  UNL1        0.0367
      6 C         139.9914  142.1356  165.6953 C.ar    1  UNL1        0.0023
      7 C         143.1174  141.9506  160.5188 C.ar    1  UNL1        0.1737
      8 C         143.3754  142.4684  159.1349 C.ar    1  UNL1        0.0401
      9 C         142.2736  143.1354  158.3661 C.ar    1  UNL1        0.0046
     10 C         140.9137  143.2848  158.9812 C.ar    1  UNL1        0.0217
     11 C         140.6557  142.7670  160.3652 C.ar    1  UNL1        0.1426
     12 C         141.7575  142.1000  161.1340 C.ar    1  UNL1        0.1895
     13 O         141.4994  141.5822  162.5180 O.3     1  UNL1       -0.4686
     14 C         140.1396  141.7316  163.1331 C.3     1  UNL1        0.2104
     15 C         139.0377  142.3986  162.3643 C.3     1  UNL1        0.1779
     16 C         137.6778  142.5480  162.9796 C.3     1  UNL1        0.0300
     17 S         139.2958  142.9164  160.9804 S.O2    1  UNL1        0.0138
     18 O         139.0522  143.5641  159.6495 O.2     1  UNL1       -0.1685
     19 O         137.8513  143.2907  161.1334 O.2     1  UNL1       -0.1685
     20 C         145.0527  142.0799  162.2472 C.3     1  UNL1        0.2526
     21 O         144.2192  141.2836  161.2876 O.3     1  UNL1       -0.4683
     22 O         139.1072  139.6606  168.6690 O.3     1  UNL1       -0.4754
     23 C         139.8961  140.1934  169.8282 C.3     1  UNL1        0.2068
     24 C         141.2255  139.5895  170.1716 C.3     1  UNL1        0.0646
     25 C         142.4910  140.3211  169.8352 C.3     1  UNL1        0.0759
     26 N         142.8093  140.6514  168.4071 N.3     1  UNL1       -0.2726
     27 C         143.1193  142.0659  168.0156 C.3     1  UNL1        0.0721
     28 C         143.4376  142.3962  166.5874 C.3     1  UNL1        0.0174
     29 C         143.4460  141.3121  165.5508 C.3     1  UNL1        0.0028
     30 C         143.1360  139.8976  165.9423 C.3     1  UNL1        0.0160
     31 C         143.1443  138.8135  164.9056 C.3     1  UNL1        0.0014
     32 C         142.8176  139.5673  167.3704 C.3     1  UNL1        0.0720
@<TRIPOS>BOND
     1    20    21    1
     2    21     7    1
     3     7     8   ar
     4     8     9   ar
     5     9    10   ar
     6    10    11   ar
     7    11    12   ar
     8    12    13    1
     9    13    14    1
    10    14     1    1
    11     1     2   ar
    12     2     3   ar
    13     3     4   ar
    14     4    22    1
    15    22    23    1
    16    23    24    1
    17    24    25    1
    18    25    26    1
    19    26    27    1
    20    27    28    1
    21    28    29    1
    22    29    30    1
    23    30    31    1
    24    30    32    1
    25     4     5   ar
    26     5     6   ar
    27    14    15    1
    28    15    16    1
    29    15    17    1
    30    17    18    2
    31    17    19    2
    32    12     7   ar
    33     6     1   ar
    34    17    11    1
    35    32    26    1
@<TRIPOS>MOLECULE
*****
 32 35 0 0 0
SMALL
GASTEIGER

@<TRIPOS>ATOM
      1 C         141.2807  140.3072  164.0930 C.ar    1  UNL1        0.0191
      2 C         142.3500  139.3425  163.6737 C.ar    1  UNL1        0.0023
      3 C         142.8723  139.3664  162.2678 C.ar    1  UNL1        0.0367
      4 C         142.3253  140.3550  161.2812 C.ar    1  UNL1        0.1385
      5 C         141.2559  141.3197  161.7005 C.ar    1  UNL1        0.0367
      6 C         140.7336  141.2958  163.1064 C.ar    1  UNL1        0.0023
      7 C         141.6994  141.7271  169.0739 C.ar    1  UNL1        0.1737
      8 C         141.1771  141.7031  170.4798 C.ar    1  UNL1        0.0401
      9 C         139.9232  140.9453  170.8012 C.ar    1  UNL1        0.0046
     10 C         139.1915  140.2115  169.7168 C.ar    1  UNL1        0.0217
     11 C         139.7138  140.2355  168.3109 C.ar    1  UNL1        0.1426
     12 C         140.9678  140.9932  167.9894 C.ar    1  UNL1        0.1895
     13 O         141.4900  141.0171  166.5834 O.3     1  UNL1       -0.4686
     14 C         140.7584  140.2833  165.4990 C.3     1  UNL1        0.2104
     15 C         139.5044  139.5255  165.8204 C.3     1  UNL1        0.1779
     16 C         138.7727  138.7917  164.7359 C.3     1  UNL1        0.0300
     17 S         138.9821  139.5016  167.2263 S.O2    1  UNL1        0.0138
     18 O         138.0992  139.1846  168.3968 O.2     1  UNL1       -0.1685
     19 O         137.9438  138.6576  166.5483 O.2     1  UNL1       -0.1685
     20 C         144.0841  142.5162  169.7375 C.3     1  UNL1        0.2526
     21 O         142.9534  142.4848  168.7524 O.3     1  UNL1       -0.4683
     22 O         142.8475  140.3789  159.8752 O.3     1  UNL1       -0.4754
     23 C         142.7874  141.6457  159.0743 C.3     1  UNL1        0.2068
     24 C         143.8414  142.6977  159.2545 C.3     1  UNL1        0.0646
     25 C         144.9291  142.5036  160.2690 C.3     1  UNL1        0.0759
     26 N         144.6579  142.7708  161.7198 N.3     1  UNL1       -0.2726
     27 C         145.3693  141.9762  162.7746 C.3     1  UNL1        0.0721
     28 C         145.0980  142.2434  164.2255 C.3     1  UNL1        0.0174
     29 C         144.1153  143.3052  164.6216 C.3     1  UNL1        0.0028
     30 C         143.4039  144.0998  163.5668 C.3     1  UNL1        0.0160
     31 C         142.4211  145.1616  163.9630 C.3     1  UNL1        0.0014
     32 C         143.6751  143.8326  162.1160 C.3     1  UNL1        0.0720
@<TRIPOS>BOND
     1    20    21    1
     2    21     7    1
     3     7     8   ar
     4     8     9   ar
     5     9    10   ar
     6    10    11   ar
     7    11    12   ar
     8    12    13    1
     9    13    14    1
    10    14     1    1
    11     1     2   ar
    12     2     3   ar
    13     3     4   ar
    14     4    22    1
    15    22    23    1
    16    23    24    1
    17    24    25    1
    18    25    26    1
    19    26    27    1
    20    27    28    1
    21    28    29    1
    22    29    30    1
    23    30    31    1
    24    30    32    1
    25     4     5   ar
    26     5     6   ar
    27    14    15    1
    28    15    16    1
    29    15    17    1
    30    17    18    2
    31    17    19    2
    32    12     7   ar
    33     6     1   ar
    34    17    11    1
    35    32    26    1
@<TRIPOS>MOLECULE
*****
 32 35 0 0 0
SMALL
GASTEIGER

@<TRIPOS>ATOM
      1 C         139.1691  140.3249  164.2273 C.ar    1  UNL1        0.0191
      2 C         138.1708  141.3265  163.7273 C.ar    1  UNL1        0.0023
      3 C         137.5784  141.1755  162.3575 C.ar    1  UNL1        0.0367
      4 C         137.9844  140.0228  161.4878 C.ar    1  UNL1        0.1385
      5 C         138.9827  139.0211  161.9879 C.ar    1  UNL1        0.0367
      6 C         139.5751  139.1722  163.3576 C.ar    1  UNL1        0.0023
      7 C         142.8907  142.1840  167.3408 C.ar    1  UNL1        0.1737
      8 C         143.4830  142.3351  168.7105 C.ar    1  UNL1        0.0401
      9 C         142.8069  141.7077  169.8934 C.ar    1  UNL1        0.0046
     10 C         141.5384  140.9292  169.7065 C.ar    1  UNL1        0.0217
     11 C         140.9461  140.7781  168.3367 C.ar    1  UNL1        0.1426
     12 C         141.6223  141.4055  167.1539 C.ar    1  UNL1        0.1895
     13 O         141.0299  141.2544  165.7840 O.3     1  UNL1       -0.4686
     14 C         139.7615  140.4760  165.5971 C.3     1  UNL1        0.2104
     15 C         139.0853  139.8485  166.7800 C.3     1  UNL1        0.1779
     16 C         137.8168  139.0700  166.5930 C.3     1  UNL1        0.0300
     17 S         139.6776  139.9996  168.1498 S.O2    1  UNL1        0.0138
     18 O         139.8502  139.8639  169.6336 O.2     1  UNL1       -0.1685
     19 O         138.4691  139.1740  168.4782 O.2     1  UNL1       -0.1685
     20 C         144.1538  141.9454  165.0830 C.3     1  UNL1        0.2526
     21 O         143.5669  142.8114  166.1579 O.3     1  UNL1       -0.4683
     22 O         137.3920  139.8717  160.1180 O.3     1  UNL1       -0.4754
     23 C         138.1753  140.2961  158.9112 C.3     1  UNL1        0.2068
     24 C         138.1986  141.7389  158.5015 C.3     1  UNL1        0.0646
     25 C         139.4536  142.5443  158.6632 C.3     1  UNL1        0.0759
     26 N         140.0940  142.6721  160.0135 N.3     1  UNL1       -0.2726
     27 C         141.1396  141.6866  160.4441 C.3     1  UNL1        0.0721
     28 C         141.7800  141.8145  161.7945 C.3     1  UNL1        0.0174
     29 C         141.3748  142.9279  162.7143 C.3     1  UNL1        0.0028
     30 C         140.3291  143.9134  162.2838 C.3     1  UNL1        0.0160
     31 C         139.9239  145.0268  163.2037 C.3     1  UNL1        0.0014
     32 C         139.6888  143.7855  160.9334 C.3     1  UNL1        0.0720
@<TRIPOS>BOND
     1    20    21    1
     2    21     7    1
     3     7     8   ar
     4     8     9   ar
     5     9    10   ar
     6    10    11   ar
     7    11    12   ar
     8    12    13    1
     9    13    14    1
    10    14     1    1
    11     1     2   ar
    12     2     3   ar
    13     3     4   ar
    14     4    22    1
    15    22    23    1
    16    23    24    1
    17    24    25    1
    18    25    26    1
    19    26    27    1
    20    27    28    1
    21    28    29    1
    22    29    30    1
    23    30    31    1
    24    30    32    1
    25     4     5   ar
    26     5     6   ar
    27    14    15    1
    28    15    16    1
    29    15    17    1
    30    17    18    2
    31    17    19    2
    32    12     7   ar
    33     6     1   ar
    34    17    11    1
    35    32    26    1
@<TRIPOS>MOLECULE
*****
 32 35 0 0 0
SMALL
GASTEIGER

@<TRIPOS>ATOM
      1 C         140.4839  142.5383  164.2866 C.ar    1  UNL1        0.0191
      2 C         141.1187  143.1384  165.5059 C.ar    1  UNL1        0.0023
      3 C         140.9203  142.4972  166.8474 C.ar    1  UNL1        0.0367
      4 C         140.0872  141.2559  166.9694 C.ar    1  UNL1        0.1385
      5 C         139.4524  140.6557  165.7500 C.ar    1  UNL1        0.0367
      6 C         139.6508  141.2970  164.4086 C.ar    1  UNL1        0.0023
      7 C         143.0295  142.8193  159.7653 C.ar    1  UNL1        0.1737
      8 C         143.2278  143.4606  158.4239 C.ar    1  UNL1        0.0401
      9 C         142.3518  144.6027  158.0017 C.ar    1  UNL1        0.0046
     10 C         141.2774  145.1034  158.9208 C.ar    1  UNL1        0.0217
     11 C         141.0790  144.4621  160.2622 C.ar    1  UNL1        0.1426
     12 C         141.9551  143.3201  160.6845 C.ar    1  UNL1        0.1895
     13 O         141.7567  142.6788  162.0259 O.3     1  UNL1       -0.4686
     14 C         140.6823  143.1796  162.9451 C.3     1  UNL1        0.2104
     15 C         139.8062  144.3216  162.5228 C.3     1  UNL1        0.1779
     16 C         138.7318  144.8223  163.4421 C.3     1  UNL1        0.0300
     17 S         140.0046  144.9629  161.1814 S.O2    1  UNL1        0.0138
     18 O         139.8058  145.8899  160.0190 O.2     1  UNL1       -0.1685
     19 O         138.8611  145.7856  161.6969 O.2     1  UNL1       -0.1685
     20 C         143.7761  140.3437  159.5134 C.3     1  UNL1        0.2526
     21 O         143.9055  141.6773  160.1876 O.3     1  UNL1       -0.4683
     22 O         139.8888  140.6146  168.3109 O.3     1  UNL1       -0.4754
     23 C         141.0651  140.0599  169.0583 C.3     1  UNL1        0.2068
     24 C         142.4337  140.1097  168.4465 C.3     1  UNL1        0.0646
     25 C         142.9013  138.9915  167.5627 C.3     1  UNL1        0.0759
     26 N         142.8008  139.1217  166.0718 N.3     1  UNL1       -0.2726
     27 C         143.5326  140.2234  165.3641 C.3     1  UNL1        0.0721
     28 C         143.4320  140.3536  163.8731 C.3     1  UNL1        0.0174
     29 C         142.5997  139.3822  163.0899 C.3     1  UNL1        0.0028
     30 C         141.8679  138.2805  163.7975 C.3     1  UNL1        0.0160
     31 C         141.0356  137.3090  163.0142 C.3     1  UNL1        0.0014
     32 C         141.9685  138.1503  165.2885 C.3     1  UNL1        0.0720
@<TRIPOS>BOND
     1    20    21    1
     2    21     7    1
     3     7     8   ar
     4     8     9   ar
     5     9    10   ar
     6    10    11   ar
     7    11    12   ar
     8    12    13    1
     9    13    14    1
    10    14     1    1
    11     1     2   ar
    12     2     3   ar
    13     3     4   ar
    14     4    22    1
    15    22    23    1
    16    23    24    1
    17    24    25    1
    18    25    26    1
    19    26    27    1
    20    27    28    1
    21    28    29    1
    22    29    30    1
    23    30    31    1
    24    30    32    1
    25     4     5   ar
    26     5     6   ar
    27    14    15    1
    28    15    16    1
    29    15    17    1
    30    17    18    2
    31    17    19    2
    32    12     7   ar
    33     6     1   ar
    34    17    11    1
    35    32    26    1
@<TRIPOS>MOLECULE
*****
 32 35 0 0 0
SMALL
GASTEIGER

@<TRIPOS>ATOM
      1 C         139.2418  139.6242  159.8136 C.ar    1  UNL1        0.0191
      2 C         138.5187  138.8902  160.9037 C.ar    1  UNL1        0.0023
      3 C         137.7811  139.6558  161.9619 C.ar    1  UNL1        0.0367
      4 C         137.7666  141.1553  161.9300 C.ar    1  UNL1        0.1385
      5 C         138.4897  141.8893  160.8398 C.ar    1  UNL1        0.0367
      6 C         139.2273  141.1238  159.7817 C.ar    1  UNL1        0.0023
      7 C         139.2419  137.0317  155.3104 C.ar    1  UNL1        0.1737
      8 C         139.9796  136.2661  154.2522 C.ar    1  UNL1        0.0401
      9 C         141.4549  136.0312  154.3875 C.ar    1  UNL1        0.0046
     10 C         142.1925  136.5618  155.5809 C.ar    1  UNL1        0.0217
     11 C         141.4548  137.3274  156.6391 C.ar    1  UNL1        0.1426
     12 C         139.9796  137.5623  156.5038 C.ar    1  UNL1        0.1895
     13 O         139.2419  138.3280  157.5620 O.3     1  UNL1       -0.4686
     14 C         139.9795  138.8586  158.7554 C.3     1  UNL1        0.2104
     15 C         141.4548  138.6236  158.8907 C.3     1  UNL1        0.1779
     16 C         142.1924  139.1543  160.0842 C.3     1  UNL1        0.0300
     17 S         142.1925  137.8581  157.8326 S.O2    1  UNL1        0.0138
     18 O         143.3227  137.1970  157.1006 O.2     1  UNL1       -0.1685
     19 O         143.3226  138.1591  158.7718 O.2     1  UNL1       -0.1685
     20 C         137.1875  137.6537  153.8466 C.3     1  UNL1        0.2526
     21 O         137.7666  137.2667  155.1751 O.3     1  UNL1       -0.4683
     22 O         137.0289  141.9210  162.9882 O.3     1  UNL1       -0.4754
     23 C         137.6650  143.1196  163.6275 C.3     1  UNL1        0.2068
     24 C         138.4822  142.9591  164.8750 C.3     1  UNL1        0.0646
     25 C         139.6950  142.0763  164.8687 C.3     1  UNL1        0.0759
     26 N         139.5384  140.5863  164.9405 N.3     1  UNL1       -0.2726
     27 C         138.4342  139.9868  165.7598 C.3     1  UNL1        0.0721
     28 C         138.2776  138.4966  165.8316 C.3     1  UNL1        0.0174
     29 C         139.2252  137.6061  165.0839 C.3     1  UNL1        0.0028
     30 C         140.3294  138.2056  164.2645 C.3     1  UNL1        0.0160
     31 C         141.2770  137.3150  163.5168 C.3     1  UNL1        0.0014
     32 C         140.4860  139.6957  164.1928 C.3     1  UNL1        0.0720
@<TRIPOS>BOND
     1    20    21    1
     2    21     7    1
     3     7     8   ar
     4     8     9   ar
     5     9    10   ar
     6    10    11   ar
     7    11    12   ar
     8    12    13    1
     9    13    14    1
    10    14     1    1
    11     1     2   ar
    12     2     3   ar
    13     3     4   ar
    14     4    22    1
    15    22    23    1
    16    23    24    1
    17    24    25    1
    18    25    26    1
    19    26    27    1
    20    27    28    1
    21    28    29    1
    22    29    30    1
    23    30    31    1
    24    30    32    1
    25     4     5   ar
    26     5     6   ar
    27    14    15    1
    28    15    16    1
    29    15    17    1
    30    17    18    2
    31    17    19    2
    32    12     7   ar
    33     6     1   ar
    34    17    11    1
    35    32    26    1
@<TRIPOS>MOLECULE
*****
 32 35 0 0 0
SMALL
GASTEIGER

@<TRIPOS>ATOM
      1 C         141.5696  142.6489  164.2587 C.ar    1  UNL1        0.0191
      2 C         140.7862  142.8665  165.5192 C.ar    1  UNL1        0.0023
      3 C         141.4833  142.8529  166.8473 C.ar    1  UNL1        0.0367
      4 C         142.9639  142.6217  166.9148 C.ar    1  UNL1        0.1385
      5 C         143.7472  142.4042  165.6542 C.ar    1  UNL1        0.0367
      6 C         143.0501  142.4178  164.3262 C.ar    1  UNL1        0.0023
      7 C         138.9492  140.1586  160.5261 C.ar    1  UNL1        0.1737
      8 C         138.2520  140.1723  159.1980 C.ar    1  UNL1        0.0401
      9 C         138.1678  141.4447  158.4082 C.ar    1  UNL1        0.0046
     10 C         138.7808  142.7035  158.9464 C.ar    1  UNL1        0.0217
     11 C         139.4780  142.6898  160.2744 C.ar    1  UNL1        0.1426
     12 C         139.5622  141.4174  161.0642 C.ar    1  UNL1        0.1895
     13 O         140.2594  141.4038  162.3924 O.3     1  UNL1       -0.4686
     14 C         140.8724  142.6625  162.9306 C.3     1  UNL1        0.2104
     15 C         140.7882  143.9350  162.1407 C.3     1  UNL1        0.1779
     16 C         141.4013  145.1938  162.6790 C.3     1  UNL1        0.0300
     17 S         140.0911  143.9486  160.8127 S.O2    1  UNL1        0.0138
     18 O         139.5403  144.4613  159.5150 O.2     1  UNL1       -0.1685
     19 O         140.5128  145.3855  160.9002 O.2     1  UNL1       -0.1685
     20 C         140.3290  138.1343  161.3908 C.3     1  UNL1        0.2526
     21 O         139.0333  138.8862  161.3159 O.3     1  UNL1       -0.4683
     22 O         143.6611  142.6081  168.2429 O.3     1  UNL1       -0.4754
     23 C         142.8866  142.3148  169.4935 C.3     1  UNL1        0.2068
     24 C         143.1857  141.0784  170.2883 C.3     1  UNL1        0.0646
     25 C         142.5231  139.7802  169.9338 C.3     1  UNL1        0.0759
     26 N         141.7407  139.6610  168.6596 N.3     1  UNL1       -0.2726
     27 C         140.2658  139.9343  168.6568 C.3     1  UNL1        0.0721
     28 C         139.4834  139.8150  167.3825 C.3     1  UNL1        0.0174
     29 C         140.1759  139.4225  166.1112 C.3     1  UNL1        0.0028
     30 C         141.6508  139.1492  166.1140 C.3     1  UNL1        0.0160
     31 C         142.3432  138.7567  164.8426 C.3     1  UNL1        0.0014
     32 C         142.4332  139.2685  167.3882 C.3     1  UNL1        0.0720
@<TRIPOS>BOND
     1    20    21    1
     2    21     7    1
     3     7     8   ar
     4     8     9   ar
     5     9    10   ar
     6    10    11   ar
     7    11    12   ar
     8    12    13    1
     9    13    14    1
    10    14     1    1
    11     1     2   ar
    12     2     3   ar
    13     3     4   ar
    14     4    22    1
    15    22    23    1
    16    23    24    1
    17    24    25    1
    18    25    26    1
    19    26    27    1
    20    27    28    1
    21    28    29    1
    22    29    30    1
    23    30    31    1
    24    30    32    1
    25     4     5   ar
    26     5     6   ar
    27    14    15    1
    28    15    16    1
    29    15    17    1
    30    17    18    2
    31    17    19    2
    32    12     7   ar
    33     6     1   ar
    34    17    11    1
    35    32    26    1
@<TRIPOS>MOLECULE
*****
 32 35 0 0 0
SMALL
GASTEIGER

@<TRIPOS>ATOM
      1 C         142.3701  140.1297  163.4859 C.ar    1  UNL1        0.0191
      2 C         143.1626  141.0166  164.4000 C.ar    1  UNL1        0.0023
      3 C         143.3925  140.6104  165.8255 C.ar    1  UNL1        0.0367
      4 C         142.8298  139.3175  166.3370 C.ar    1  UNL1        0.1385
      5 C         142.0374  138.4306  165.4230 C.ar    1  UNL1        0.0367
      6 C         141.8075  138.8367  163.9974 C.ar    1  UNL1        0.0023
      7 C         139.8386  143.0103  159.9797 C.ar    1  UNL1        0.1737
      8 C         139.6088  143.4164  158.5542 C.ar    1  UNL1        0.0401
      9 C         140.4149  142.7884  157.4561 C.ar    1  UNL1        0.0046
     10 C         141.4509  141.7543  157.7836 C.ar    1  UNL1        0.0217
     11 C         141.6807  141.3482  159.2092 C.ar    1  UNL1        0.1426
     12 C         140.8745  141.9762  160.3072 C.ar    1  UNL1        0.1895
     13 O         141.1043  141.5700  161.7328 O.3     1  UNL1       -0.4686
     14 C         142.1403  140.5359  162.0603 C.3     1  UNL1        0.2104
     15 C         142.9465  139.9078  160.9623 C.3     1  UNL1        0.1779
     16 C         143.9824  138.8737  161.2899 C.3     1  UNL1        0.0300
     17 S         142.7167  140.3140  159.5367 S.O2    1  UNL1        0.0138
     18 O         142.8645  140.3674  158.0450 O.2     1  UNL1       -0.1685
     19 O         143.8040  139.2983  159.3462 O.2     1  UNL1       -0.1685
     20 C         139.5586  144.8435  161.7993 C.3     1  UNL1        0.2526
     21 O         139.0324  143.6384  161.0778 O.3     1  UNL1       -0.4683
     22 O         143.0597  138.9113  167.7626 O.3     1  UNL1       -0.4754
     23 C         142.6704  139.8358  168.8779 C.3     1  UNL1        0.2068
     24 C         141.4261  139.5703  169.6724 C.3     1  UNL1        0.0646
     25 C         140.1602  140.3087  169.3526 C.3     1  UNL1        0.0759
     26 N         139.7511  140.5121  167.9239 N.3     1  UNL1       -0.2726
     27 C         138.9199  139.4760  167.2270 C.3     1  UNL1        0.0721
     28 C         138.5108  139.6794  165.7982 C.3     1  UNL1        0.0174
     29 C         138.9328  140.9188  165.0664 C.3     1  UNL1        0.0028
     30 C         139.7639  141.9550  165.7633 C.3     1  UNL1        0.0160
     31 C         140.1859  143.1945  165.0314 C.3     1  UNL1        0.0014
     32 C         140.1731  141.7516  167.1920 C.3     1  UNL1        0.0720
@<TRIPOS>BOND
     1    20    21    1
     2    21     7    1
     3     7     8   ar
     4     8     9   ar
     5     9    10   ar
     6    10    11   ar
     7    11    12   ar
     8    12    13    1
     9    13    14    1
    10    14     1    1
    11     1     2   ar
    12     2     3   ar
    13     3     4   ar
    14     4    22    1
    15    22    23    1
    16    23    24    1
    17    24    25    1
    18    25    26    1
    19    26    27    1
    20    27    28    1
    21    28    29    1
    22    29    30    1
    23    30    31    1
    24    30    32    1
    25     4     5   ar
    26     5     6   ar
    27    14    15    1
    28    15    16    1
    29    15    17    1
    30    17    18    2
    31    17    19    2
    32    12     7   ar
    33     6     1   ar
    34    17    11    1
    35    32    26    1
@<TRIPOS>MOLECULE
*****
 32 35 0 0 0
SMALL
GASTEIGER

@<TRIPOS>ATOM
      1 C         139.2263  139.6615  159.9545 C.ar    1  UNL1        0.0191
      2 C         139.0606  141.1507  159.8844 C.ar    1  UNL1        0.0023
      3 C         138.3027  141.8723  160.9591 C.ar    1  UNL1        0.0367
      4 C         137.7106  141.1048  162.1037 C.ar    1  UNL1        0.1385
      5 C         137.8764  139.6156  162.1737 C.ar    1  UNL1        0.0367
      6 C         138.6342  138.8940  161.0991 C.ar    1  UNL1        0.0023
      7 C         139.2846  137.1047  155.4312 C.ar    1  UNL1        0.1737
      8 C         140.0425  136.3832  154.3566 C.ar    1  UNL1        0.0401
      9 C         141.5292  136.2183  154.4689 C.ar    1  UNL1        0.0046
     10 C         142.2580  136.7751  155.6559 C.ar    1  UNL1        0.0217
     11 C         141.5001  137.4966  156.7305 C.ar    1  UNL1        0.1426
     12 C         140.0134  137.6615  156.6181 C.ar    1  UNL1        0.1895
     13 O         139.2555  138.3831  157.6928 O.3     1  UNL1       -0.4686
     14 C         139.9842  138.9399  158.8798 C.3     1  UNL1        0.2104
     15 C         141.4709  138.7750  158.9921 C.3     1  UNL1        0.1779
     16 C         142.1997  139.3318  160.1791 C.3     1  UNL1        0.0300
     17 S         142.2288  138.0534  157.9175 S.O2    1  UNL1        0.0138
     18 O         143.3785  137.4527  157.1642 O.2     1  UNL1       -0.1685
     19 O         143.3569  138.4016  158.8429 O.2     1  UNL1       -0.1685
     20 C         137.1835  137.6594  154.0072 C.3     1  UNL1        0.2526
     21 O         137.7979  137.2696  155.3189 O.3     1  UNL1       -0.4683
     22 O         136.9527  141.8264  163.1784 O.3     1  UNL1       -0.4754
     23 C         137.6932  142.6114  164.2203 C.3     1  UNL1        0.2068
     24 C         137.9042  144.0854  164.0396 C.3     1  UNL1        0.0646
     25 C         139.2956  144.6386  163.9514 C.3     1  UNL1        0.0759
     26 N         140.1612  144.3069  162.7722 N.3     1  UNL1       -0.2726
     27 C         141.2223  143.2536  162.8933 C.3     1  UNL1        0.0721
     28 C         142.0879  142.9219  161.7139 C.3     1  UNL1        0.0174
     29 C         141.8924  143.6435  160.4136 C.3     1  UNL1        0.0028
     30 C         140.8314  144.6968  160.2924 C.3     1  UNL1        0.0160
     31 C         140.6359  145.4184  158.9920 C.3     1  UNL1        0.0014
     32 C         139.9658  145.0285  161.4717 C.3     1  UNL1        0.0720
@<TRIPOS>BOND
     1    20    21    1
     2    21     7    1
     3     7     8   ar
     4     8     9   ar
     5     9    10   ar
     6    10    11   ar
     7    11    12   ar
     8    12    13    1
     9    13    14    1
    10    14     1    1
    11     1     2   ar
    12     2     3   ar
    13     3     4   ar
    14     4    22    1
    15    22    23    1
    16    23    24    1
    17    24    25    1
    18    25    26    1
    19    26    27    1
    20    27    28    1
    21    28    29    1
    22    29    30    1
    23    30    31    1
    24    30    32    1
    25     4     5   ar
    26     5     6   ar
    27    14    15    1
    28    15    16    1
    29    15    17    1
    30    17    18    2
    31    17    19    2
    32    12     7   ar
    33     6     1   ar
    34    17    11    1
    35    32    26    1
