@<TRIPOS>MOLECULE
*****
 36 40 0 0 0
SMALL
GASTEIGER

@<TRIPOS>ATOM
      1 C         137.9294  141.1973  161.1758 C.3     1  UNL1        0.2588
      2 O         139.4700  140.7933  159.1231 O.2     1  UNL1       -0.2708
      3 C         138.7556  141.7360  160.0455 C.2     1  UNL1        0.2689
      4 N         138.8673  143.2173  159.8378 N.am    1  UNL1       -0.2664
      5 H         138.3984  143.8360  160.4433 H       1  UNL1        0.1564
      6 C         139.6934  143.7560  158.7076 C.ar    1  UNL1        0.1343
      7 C         141.0090  144.4189  158.9899 C.ar    1  UNL1        0.0354
      8 C         141.8351  144.9575  157.8597 C.ar    1  UNL1        0.0158
      9 C         141.3456  144.8334  156.4472 C.ar    1  UNL1        0.0769
     10 CL        142.1717  145.3721  155.3171 Cl      1  UNL1       -0.0806
     11 C         140.0299  144.1705  156.1650 C.ar    1  UNL1        0.1116
     12 N         139.2038  143.6318  157.2953 N.ar    1  UNL1       -0.2281
     13 C         137.6838  139.7219  161.2884 C.3     1  UNL1        0.1261
     14 N         138.7400  138.8276  161.8669 N.3     1  UNL1       -0.2650
     15 C         138.7448  137.6752  162.8271 C.3     1  UNL1        0.1033
     16 C         140.2338  137.5631  162.6851 C.3     1  UNL1        0.1423
     17 O         141.2901  136.6689  163.2636 O.3     1  UNL1       -0.3816
     18 C         140.2291  138.7154  161.7250 C.3     1  UNL1        0.1033
     19 H         140.8778  136.0277  163.8635 H       1  UNL1        0.2105
     20 O         137.3490  142.1341  162.1933 O.3     1  UNL1       -0.4529
     21 C         138.2530  142.8679  163.1390 C.ar    1  UNL1        0.2312
     22 N         138.6552  144.2830  162.8462 N.ar    1  UNL1       -0.1892
     23 C         139.5592  145.0167  163.7919 C.ar    1  UNL1        0.2029
     24 N         140.0611  144.3354  165.0304 N.ar    1  UNL1       -0.2045
     25 C         139.6589  142.9203  165.3232 C.ar    1  UNL1        0.1732
     26 C         138.7549  142.1866  164.3775 C.ar    1  UNL1        0.1099
     27 C         138.5302  140.8086  164.9261 C.ar    1  UNL1        0.1283
     28 N         139.2954  140.6908  166.2109 N.ar    1  UNL1       -0.1606
     29 N         139.9930  141.9959  166.4563 N.ar    1  UNL1       -0.1936
     30 C         140.8705  142.3197  167.6289 C.ar    1  UNL1        0.1759
     31 N         140.3196  143.1007  168.7849 N.ar    1  UNL1       -0.2242
     32 C         141.1972  143.4245  169.9575 C.ar    1  UNL1        0.1006
     33 C         142.6257  142.9674  169.9741 C.ar    1  UNL1        0.0217
     34 C         143.1766  142.1863  168.8181 C.ar    1  UNL1        0.0161
     35 C         142.2991  141.8625  167.6455 C.ar    1  UNL1        0.0935
     36 CL        142.8500  141.0815  166.4894 Cl      1  UNL1       -0.0790
@<TRIPOS>BOND
     1     2     3    2
     2     3     4   am
     3     4     6    1
     4     6     7   ar
     5     7     8   ar
     6     8     9   ar
     7     9    10    1
     8     9    11   ar
     9    11    12   ar
    10     3     1    1
    11     1    13    1
    12    13    14    1
    13    14    15    1
    14    15    16    1
    15    16    17    1
    16    16    18    1
    17     1    20    1
    18    20    21    1
    19    21    22   ar
    20    22    23   ar
    21    23    24   ar
    22    24    25   ar
    23    25    26   ar
    24    26    27   ar
    25    27    28   ar
    26    28    29   ar
    27    29    30    1
    28    30    31   ar
    29    31    32   ar
    30    32    33   ar
    31    33    34   ar
    32    34    35   ar
    33    35    36    1
    34    12     6   ar
    35    18    14    1
    36    26    21   ar
    37    35    30   ar
    38    29    25   ar
    39     4     5    1
    40    17    19    1
@<TRIPOS>MOLECULE
*****
 36 40 0 0 0
SMALL
GASTEIGER

@<TRIPOS>ATOM
      1 C         141.0192  144.6753  160.1005 C.3     1  UNL1        0.2588
      2 O         142.3841  146.0455  158.3656 O.2     1  UNL1       -0.2708
      3 C         141.0866  145.4389  158.8110 C.2     1  UNL1        0.2689
      4 N         139.8564  145.5958  157.9672 N.am    1  UNL1       -0.2664
      5 H         139.0048  145.1977  158.2596 H       1  UNL1        0.1564
      6 C         139.9238  146.3593  156.6778 C.ar    1  UNL1        0.1343
      7 C         139.0918  147.5936  156.4928 C.ar    1  UNL1        0.0354
      8 C         139.1591  148.3572  155.2034 C.ar    1  UNL1        0.0158
      9 C         140.0585  147.8864  154.0991 C.ar    1  UNL1        0.0769
     10 CL        140.1259  148.6499  152.8097 Cl      1  UNL1       -0.0806
     11 C         140.8906  146.6521  154.2842 C.ar    1  UNL1        0.1116
     12 N         140.8232  145.8886  155.5736 N.ar    1  UNL1       -0.2281
     13 C         141.0920  143.1771  160.0896 C.3     1  UNL1        0.1261
     14 N         139.9039  142.3654  160.5131 N.3     1  UNL1       -0.2650
     15 C         139.6706  141.2643  161.5048 C.3     1  UNL1        0.1033
     16 C         138.2237  141.2173  161.1121 C.3     1  UNL1        0.1423
     17 O         137.0355  140.4056  161.5356 O.3     1  UNL1       -0.3816
     18 C         138.4570  142.3183  160.1205 C.3     1  UNL1        0.1033
     19 H         137.3026  139.7762  162.2237 H       1  UNL1        0.2105
     20 O         140.8789  145.4100  161.4007 O.3     1  UNL1       -0.4529
     21 C         140.0501  144.8262  162.5063 C.ar    1  UNL1        0.2312
     22 N         138.5561  144.9550  162.4719 N.ar    1  UNL1       -0.1892
     23 C         137.7274  144.3713  163.5776 C.ar    1  UNL1        0.2029
     24 N         138.3927  143.6587  164.7176 N.ar    1  UNL1       -0.2045
     25 C         139.8867  143.5299  164.7520 C.ar    1  UNL1        0.1732
     26 C         140.7154  144.1136  163.6464 C.ar    1  UNL1        0.1099
     27 C         142.1573  143.8321  163.9495 C.ar    1  UNL1        0.1283
     28 N         142.2196  143.0743  165.2425 N.ar    1  UNL1       -0.1606
     29 N         140.8163  142.8876  165.7384 N.ar    1  UNL1       -0.1936
     30 C         140.4134  142.1823  166.9995 C.ar    1  UNL1        0.1759
     31 N         140.5501  142.8751  168.3228 N.ar    1  UNL1       -0.2242
     32 C         140.1471  142.1698  169.5838 C.ar    1  UNL1        0.1006
     33 C         139.6075  140.7717  169.5216 C.ar    1  UNL1        0.0217
     34 C         139.4708  140.0788  168.1982 C.ar    1  UNL1        0.0161
     35 C         139.8738  140.7841  166.9372 C.ar    1  UNL1        0.0935
     36 CL        139.7371  140.0912  165.6139 Cl      1  UNL1       -0.0790
@<TRIPOS>BOND
     1     2     3    2
     2     3     4   am
     3     4     6    1
     4     6     7   ar
     5     7     8   ar
     6     8     9   ar
     7     9    10    1
     8     9    11   ar
     9    11    12   ar
    10     3     1    1
    11     1    13    1
    12    13    14    1
    13    14    15    1
    14    15    16    1
    15    16    17    1
    16    16    18    1
    17     1    20    1
    18    20    21    1
    19    21    22   ar
    20    22    23   ar
    21    23    24   ar
    22    24    25   ar
    23    25    26   ar
    24    26    27   ar
    25    27    28   ar
    26    28    29   ar
    27    29    30    1
    28    30    31   ar
    29    31    32   ar
    30    32    33   ar
    31    33    34   ar
    32    34    35   ar
    33    35    36    1
    34    12     6   ar
    35    18    14    1
    36    26    21   ar
    37    35    30   ar
    38    29    25   ar
    39     4     5    1
    40    17    19    1
@<TRIPOS>MOLECULE
*****
 36 40 0 0 0
SMALL
GASTEIGER

@<TRIPOS>ATOM
      1 C         138.2823  142.2781  164.1437 C.3     1  UNL1        0.2588
      2 O         140.2243  142.9758  165.7223 O.2     1  UNL1       -0.2708
      3 C         139.2126  141.9618  165.2771 C.2     1  UNL1        0.2689
      4 N         139.1311  140.6315  165.9653 N.am    1  UNL1       -0.2664
      5 H         138.4670  139.9660  165.6732 H       1  UNL1        0.1564
      6 C         140.0613  140.3152  167.0987 C.ar    1  UNL1        0.1343
      7 C         139.5700  140.3856  168.5142 C.ar    1  UNL1        0.0354
      8 C         140.5002  140.0693  169.6476 C.ar    1  UNL1        0.0158
      9 C         141.9218  139.6825  169.3655 C.ar    1  UNL1        0.0769
     10 CL        142.8520  139.3662  170.4989 Cl      1  UNL1       -0.0806
     11 C         142.4131  139.6120  167.9500 C.ar    1  UNL1        0.1116
     12 N         141.4828  139.9284  166.8166 N.ar    1  UNL1       -0.2281
     13 C         138.1588  143.6876  163.6457 C.3     1  UNL1        0.1261
     14 N         139.1979  144.2502  162.7217 N.3     1  UNL1       -0.2650
     15 C         140.4099  143.7017  162.0287 C.3     1  UNL1        0.1033
     16 C         140.6672  145.0459  161.4149 C.3     1  UNL1        0.1423
     17 O         141.7062  145.6086  160.4908 O.3     1  UNL1       -0.3816
     18 C         139.4553  145.5944  162.1078 C.3     1  UNL1        0.1033
     19 H         142.3418  144.9139  160.2576 H       1  UNL1        0.2105
     20 O         137.4754  141.1848  163.5083 O.3     1  UNL1       -0.4529
     21 C         138.1671  140.0409  162.8276 C.ar    1  UNL1        0.2312
     22 N         138.5028  138.8002  163.6009 N.ar    1  UNL1       -0.1892
     23 C         139.1945  137.6565  162.9202 C.ar    1  UNL1        0.2029
     24 N         139.5504  137.7533  161.4663 N.ar    1  UNL1       -0.2045
     25 C         139.2147  138.9940  160.6930 C.ar    1  UNL1        0.1732
     26 C         138.5230  140.1378  161.3737 C.ar    1  UNL1        0.1099
     27 C         138.3203  141.2258  160.3611 C.ar    1  UNL1        0.1283
     28 N         138.8867  140.7543  159.0546 N.ar    1  UNL1       -0.1606
     29 N         139.4395  139.3750  159.2597 N.ar    1  UNL1       -0.1936
     30 C         140.1009  138.5258  158.2150 C.ar    1  UNL1        0.1759
     31 N         139.2848  137.9277  157.1077 N.ar    1  UNL1       -0.2242
     32 C         139.9462  137.0785  156.0630 C.ar    1  UNL1        0.1006
     33 C         141.4237  136.8274  156.1256 C.ar    1  UNL1        0.0217
     34 C         142.2398  137.4256  157.2329 C.ar    1  UNL1        0.0161
     35 C         141.5784  138.2748  158.2776 C.ar    1  UNL1        0.0935
     36 CL        142.3945  138.8730  159.3849 Cl      1  UNL1       -0.0790
@<TRIPOS>BOND
     1     2     3    2
     2     3     4   am
     3     4     6    1
     4     6     7   ar
     5     7     8   ar
     6     8     9   ar
     7     9    10    1
     8     9    11   ar
     9    11    12   ar
    10     3     1    1
    11     1    13    1
    12    13    14    1
    13    14    15    1
    14    15    16    1
    15    16    17    1
    16    16    18    1
    17     1    20    1
    18    20    21    1
    19    21    22   ar
    20    22    23   ar
    21    23    24   ar
    22    24    25   ar
    23    25    26   ar
    24    26    27   ar
    25    27    28   ar
    26    28    29   ar
    27    29    30    1
    28    30    31   ar
    29    31    32   ar
    30    32    33   ar
    31    33    34   ar
    32    34    35   ar
    33    35    36    1
    34    12     6   ar
    35    18    14    1
    36    26    21   ar
    37    35    30   ar
    38    29    25   ar
    39     4     5    1
    40    17    19    1
@<TRIPOS>MOLECULE
*****
 36 40 0 0 0
SMALL
GASTEIGER

@<TRIPOS>ATOM
      1 C         139.2489  138.3031  161.4929 C.3     1  UNL1        0.2588
      2 O         139.1225  138.6786  158.9252 O.2     1  UNL1       -0.2708
      3 C         139.9343  138.4684  160.1689 C.2     1  UNL1        0.2689
      4 N         141.4315  138.4235  160.0886 N.am    1  UNL1       -0.2664
      5 H         141.9643  138.2855  160.9049 H       1  UNL1        0.1564
      6 C         142.1168  138.5888  158.7646 C.ar    1  UNL1        0.1343
      7 C         142.4203  137.3856  157.9218 C.ar    1  UNL1        0.0354
      8 C         143.1056  137.5509  156.5978 C.ar    1  UNL1        0.0158
      9 C         143.4876  138.9194  156.1167 C.ar    1  UNL1        0.0769
     10 CL        144.1730  139.0847  154.7927 Cl      1  UNL1       -0.0806
     11 C         143.1842  140.1225  156.9595 C.ar    1  UNL1        0.1116
     12 N         142.4988  139.9572  158.2835 N.ar    1  UNL1       -0.2281
     13 C         137.9248  138.9631  161.7396 C.3     1  UNL1        0.1261
     14 N         137.8500  140.4504  161.9192 N.3     1  UNL1       -0.2650
     15 C         138.2285  141.6397  161.0870 C.3     1  UNL1        0.1033
     16 C         137.7442  142.5538  162.1732 C.3     1  UNL1        0.1423
     17 O         137.6694  144.0411  162.3528 O.3     1  UNL1       -0.3816
     18 C         137.3658  141.3647  163.0053 C.3     1  UNL1        0.1033
     19 H         138.0253  144.4803  161.5645 H       1  UNL1        0.2105
     20 O         139.8878  137.4777  162.5703 O.3     1  UNL1       -0.4529
     21 C         140.7890  138.1277  163.5781 C.ar    1  UNL1        0.2312
     22 N         142.2675  138.1891  163.3327 N.ar    1  UNL1       -0.1892
     23 C         143.1685  138.8391  164.3405 C.ar    1  UNL1        0.2029
     24 N         142.5911  139.4276  165.5936 N.ar    1  UNL1       -0.2045
     25 C         141.1126  139.3662  165.8389 C.ar    1  UNL1        0.1732
     26 C         140.2115  138.7162  164.8311 C.ar    1  UNL1        0.1099
     27 C         138.8041  138.8048  165.3425 C.ar    1  UNL1        0.1283
     28 N         138.8354  139.5095  166.6662 N.ar    1  UNL1       -0.1606
     29 N         140.2621  139.8564  166.9730 N.ar    1  UNL1       -0.1936
     30 C         140.7523  140.5686  168.1988 C.ar    1  UNL1        0.1759
     31 N         141.1622  139.7831  169.4091 N.ar    1  UNL1       -0.2242
     32 C         141.6524  140.4952  170.6349 C.ar    1  UNL1        0.1006
     33 C         141.7327  141.9930  170.6504 C.ar    1  UNL1        0.0217
     34 C         141.3228  142.7785  169.4401 C.ar    1  UNL1        0.0161
     35 C         140.8326  142.0664  168.2143 C.ar    1  UNL1        0.0935
     36 CL        140.4227  142.8520  167.0040 Cl      1  UNL1       -0.0790
@<TRIPOS>BOND
     1     2     3    2
     2     3     4   am
     3     4     6    1
     4     6     7   ar
     5     7     8   ar
     6     8     9   ar
     7     9    10    1
     8     9    11   ar
     9    11    12   ar
    10     3     1    1
    11     1    13    1
    12    13    14    1
    13    14    15    1
    14    15    16    1
    15    16    17    1
    16    16    18    1
    17     1    20    1
    18    20    21    1
    19    21    22   ar
    20    22    23   ar
    21    23    24   ar
    22    24    25   ar
    23    25    26   ar
    24    26    27   ar
    25    27    28   ar
    26    28    29   ar
    27    29    30    1
    28    30    31   ar
    29    31    32   ar
    30    32    33   ar
    31    33    34   ar
    32    34    35   ar
    33    35    36    1
    34    12     6   ar
    35    18    14    1
    36    26    21   ar
    37    35    30   ar
    38    29    25   ar
    39     4     5    1
    40    17    19    1
@<TRIPOS>MOLECULE
*****
 36 40 0 0 0
SMALL
GASTEIGER

@<TRIPOS>ATOM
      1 C         139.0923  138.4788  162.4832 C.3     1  UNL1        0.2588
      2 O         139.1985  137.3611  164.8262 O.2     1  UNL1       -0.2708
      3 C         139.4629  138.5387  163.9355 C.2     1  UNL1        0.2689
      4 N         140.0979  139.7762  164.4971 N.am    1  UNL1       -0.2664
      5 H         140.2714  140.5491  163.9125 H       1  UNL1        0.1564
      6 C         140.4684  139.8362  165.9493 C.ar    1  UNL1        0.1343
      7 C         139.4206  140.1396  166.9788 C.ar    1  UNL1        0.0354
      8 C         139.7911  140.1995  168.4311 C.ar    1  UNL1        0.0158
      9 C         141.2096  139.9561  168.8538 C.ar    1  UNL1        0.0769
     10 CL        141.5802  140.0160  170.3061 Cl      1  UNL1       -0.0806
     11 C         142.2575  139.6526  167.8243 C.ar    1  UNL1        0.1116
     12 N         141.8869  139.5927  166.3720 N.ar    1  UNL1       -0.2281
     13 C         137.8988  139.2364  161.9818 C.3     1  UNL1        0.1261
     14 N         137.8374  140.7271  162.1369 N.3     1  UNL1       -0.2650
     15 C         137.3166  141.6638  163.1865 C.3     1  UNL1        0.1033
     16 C         137.7506  142.8353  162.3563 C.3     1  UNL1        0.1423
     17 O         137.6892  144.3260  162.5114 O.3     1  UNL1       -0.3816
     18 C         138.2714  141.8987  161.3068 C.3     1  UNL1        0.1033
     19 H         137.2644  144.5460  163.3552 H       1  UNL1        0.2105
     20 O         139.9153  137.6611  161.5323 O.3     1  UNL1       -0.4529
     21 C         141.3115  138.0892  161.1895 C.ar    1  UNL1        0.2312
     22 N         142.4477  137.7459  162.1066 N.ar    1  UNL1       -0.1892
     23 C         143.8439  138.1740  161.7638 C.ar    1  UNL1        0.2029
     24 N         144.1038  138.9454  160.5039 N.ar    1  UNL1       -0.2045
     25 C         142.9676  139.2887  159.5868 C.ar    1  UNL1        0.1732
     26 C         141.5715  138.8606  159.9296 C.ar    1  UNL1        0.1099
     27 C         140.6588  139.3404  158.8401 C.ar    1  UNL1        0.1283
     28 N         141.4909  140.0650  157.8240 N.ar    1  UNL1       -0.1606
     29 N         142.9178  140.0331  158.2855 N.ar    1  UNL1       -0.1936
     30 C         144.0893  140.6391  157.5711 C.ar    1  UNL1        0.1759
     31 N         144.7480  141.8696  158.1203 N.ar    1  UNL1       -0.2242
     32 C         145.9195  142.4756  157.4059 C.ar    1  UNL1        0.1006
     33 C         146.4323  141.8511  156.1422 C.ar    1  UNL1        0.0217
     34 C         145.7735  140.6205  155.5930 C.ar    1  UNL1        0.0161
     35 C         144.6021  140.0145  156.3074 C.ar    1  UNL1        0.0935
     36 CL        143.9434  138.7839  155.7581 Cl      1  UNL1       -0.0790
@<TRIPOS>BOND
     1     2     3    2
     2     3     4   am
     3     4     6    1
     4     6     7   ar
     5     7     8   ar
     6     8     9   ar
     7     9    10    1
     8     9    11   ar
     9    11    12   ar
    10     3     1    1
    11     1    13    1
    12    13    14    1
    13    14    15    1
    14    15    16    1
    15    16    17    1
    16    16    18    1
    17     1    20    1
    18    20    21    1
    19    21    22   ar
    20    22    23   ar
    21    23    24   ar
    22    24    25   ar
    23    25    26   ar
    24    26    27   ar
    25    27    28   ar
    26    28    29   ar
    27    29    30    1
    28    30    31   ar
    29    31    32   ar
    30    32    33   ar
    31    33    34   ar
    32    34    35   ar
    33    35    36    1
    34    12     6   ar
    35    18    14    1
    36    26    21   ar
    37    35    30   ar
    38    29    25   ar
    39     4     5    1
    40    17    19    1
@<TRIPOS>MOLECULE
*****
 36 40 0 0 0
SMALL
GASTEIGER

@<TRIPOS>ATOM
      1 C         141.2398  138.4086  160.4835 C.3     1  UNL1        0.2588
      2 O         143.8155  138.4790  160.1506 O.2     1  UNL1       -0.2708
      3 C         142.4497  139.0121  159.8339 C.2     1  UNL1        0.2689
      4 N         142.2938  140.1489  158.8677 N.am    1  UNL1       -0.2664
      5 H         141.3974  140.4988  158.6599 H       1  UNL1        0.1564
      6 C         143.5037  140.7524  158.2182 C.ar    1  UNL1        0.1343
      7 C         144.0598  140.1498  156.9621 C.ar    1  UNL1        0.0354
      8 C         145.2697  140.7534  156.3126 C.ar    1  UNL1        0.0158
      9 C         145.9235  141.9596  156.9191 C.ar    1  UNL1        0.0769
     10 CL        147.1333  142.5631  156.2696 Cl      1  UNL1       -0.0806
     11 C         145.3673  142.5621  158.1752 C.ar    1  UNL1        0.1116
     12 N         144.1574  141.9585  158.8247 N.ar    1  UNL1       -0.2281
     13 C         139.8691  138.7481  159.9777 C.3     1  UNL1        0.1261
     14 N         139.2222  140.0418  160.3748 N.3     1  UNL1       -0.2650
     15 C         139.1878  140.8708  161.6246 C.3     1  UNL1        0.1033
     16 C         138.3074  141.8714  160.9365 C.3     1  UNL1        0.1423
     17 O         137.6605  143.1652  161.3337 O.3     1  UNL1       -0.3816
     18 C         138.3417  141.0426  159.6869 C.3     1  UNL1        0.1033
     19 H         137.8858  143.3700  162.2547 H       1  UNL1        0.2105
     20 O         141.4006  137.4656  161.6388 O.3     1  UNL1       -0.4529
     21 C         140.9714  137.8840  163.0139 C.ar    1  UNL1        0.2312
     22 N         139.5495  137.6860  163.4484 N.ar    1  UNL1       -0.1892
     23 C         139.1203  138.1045  164.8234 C.ar    1  UNL1        0.2029
     24 N         140.1130  138.7210  165.7638 N.ar    1  UNL1       -0.2045
     25 C         141.5349  138.9190  165.3293 C.ar    1  UNL1        0.1732
     26 C         141.9641  138.5006  163.9543 C.ar    1  UNL1        0.1099
     27 C         143.4227  138.8185  163.8071 C.ar    1  UNL1        0.1283
     28 N         143.8948  139.4335  165.0911 N.ar    1  UNL1       -0.1606
     29 N         142.7281  139.4956  166.0319 N.ar    1  UNL1       -0.1936
     30 C         142.7507  140.0389  167.4299 C.ar    1  UNL1        0.1759
     31 N         142.7476  139.1000  168.5996 N.ar    1  UNL1       -0.2242
     32 C         142.7702  139.6433  169.9976 C.ar    1  UNL1        0.1006
     33 C         142.7959  141.1256  170.2258 C.ar    1  UNL1        0.0217
     34 C         142.7990  142.0645  169.0561 C.ar    1  UNL1        0.0161
     35 C         142.7764  141.5212  167.6581 C.ar    1  UNL1        0.0935
     36 CL        142.7795  142.4602  166.4884 Cl      1  UNL1       -0.0790
@<TRIPOS>BOND
     1     2     3    2
     2     3     4   am
     3     4     6    1
     4     6     7   ar
     5     7     8   ar
     6     8     9   ar
     7     9    10    1
     8     9    11   ar
     9    11    12   ar
    10     3     1    1
    11     1    13    1
    12    13    14    1
    13    14    15    1
    14    15    16    1
    15    16    17    1
    16    16    18    1
    17     1    20    1
    18    20    21    1
    19    21    22   ar
    20    22    23   ar
    21    23    24   ar
    22    24    25   ar
    23    25    26   ar
    24    26    27   ar
    25    27    28   ar
    26    28    29   ar
    27    29    30    1
    28    30    31   ar
    29    31    32   ar
    30    32    33   ar
    31    33    34   ar
    32    34    35   ar
    33    35    36    1
    34    12     6   ar
    35    18    14    1
    36    26    21   ar
    37    35    30   ar
    38    29    25   ar
    39     4     5    1
    40    17    19    1
@<TRIPOS>MOLECULE
*****
 36 40 0 0 0
SMALL
GASTEIGER

@<TRIPOS>ATOM
      1 C         141.6700  137.9328  162.6606 C.3     1  UNL1        0.2588
      2 O         141.3878  136.8868  165.0221 O.2     1  UNL1       -0.2708
      3 C         141.4394  138.0945  164.1340 C.2     1  UNL1        0.2689
      4 N         141.2604  139.4640  164.7192 N.am    1  UNL1       -0.2664
      5 H         141.2943  140.2567  164.1363 H       1  UNL1        0.1564
      6 C         141.0298  139.6258  166.1925 C.ar    1  UNL1        0.1343
      7 C         139.6366  139.8073  166.7181 C.ar    1  UNL1        0.0354
      8 C         139.4060  139.9691  168.1913 C.ar    1  UNL1        0.0158
      9 C         140.5685  139.9493  169.1391 C.ar    1  UNL1        0.0769
     10 CL        140.3379  140.1111  170.6124 Cl      1  UNL1       -0.0806
     11 C         141.9617  139.7678  168.6135 C.ar    1  UNL1        0.1116
     12 N         142.1923  139.6060  167.1402 N.ar    1  UNL1       -0.2281
     13 C         143.0478  138.1069  162.0936 C.3     1  UNL1        0.1261
     14 N         143.9530  139.1727  162.6363 N.3     1  UNL1       -0.2650
     15 C         144.4480  140.4984  162.1388 C.3     1  UNL1        0.1033
     16 C         145.2332  140.6800  163.4039 C.3     1  UNL1        0.1423
     17 O         146.1385  141.7458  163.9466 O.3     1  UNL1       -0.3816
     18 C         144.7383  139.3544  163.9014 C.3     1  UNL1        0.1033
     19 H         146.2085  142.4687  163.3037 H       1  UNL1        0.2105
     20 O         140.5229  137.5969  161.7544 O.3     1  UNL1       -0.4529
     21 C         139.5825  138.6752  161.3037 C.ar    1  UNL1        0.2312
     22 N         138.8547  139.5075  162.3174 N.ar    1  UNL1       -0.1892
     23 C         137.9144  140.5857  161.8668 C.ar    1  UNL1        0.2029
     24 N         137.7019  140.8317  160.4024 N.ar    1  UNL1       -0.2045
     25 C         138.4297  139.9995  159.3887 C.ar    1  UNL1        0.1732
     26 C         139.3700  138.9213  159.8394 C.ar    1  UNL1        0.1099
     27 C         139.9437  138.2661  158.6180 C.ar    1  UNL1        0.1283
     28 N         139.3578  138.9395  157.4124 N.ar    1  UNL1       -0.1606
     29 N         138.4222  140.0108  157.8888 N.ar    1  UNL1       -0.1936
     30 C         137.6198  140.9317  157.0181 C.ar    1  UNL1        0.1759
     31 N         136.3511  140.4465  156.3819 N.ar    1  UNL1       -0.2242
     32 C         135.5487  141.3674  155.5112 C.ar    1  UNL1        0.1006
     33 C         136.0150  142.7736  155.2767 C.ar    1  UNL1        0.0217
     34 C         137.2837  143.2589  155.9130 C.ar    1  UNL1        0.0161
     35 C         138.0861  142.3380  156.7837 C.ar    1  UNL1        0.0935
     36 CL        139.3548  142.8234  157.4199 Cl      1  UNL1       -0.0790
@<TRIPOS>BOND
     1     2     3    2
     2     3     4   am
     3     4     6    1
     4     6     7   ar
     5     7     8   ar
     6     8     9   ar
     7     9    10    1
     8     9    11   ar
     9    11    12   ar
    10     3     1    1
    11     1    13    1
    12    13    14    1
    13    14    15    1
    14    15    16    1
    15    16    17    1
    16    16    18    1
    17     1    20    1
    18    20    21    1
    19    21    22   ar
    20    22    23   ar
    21    23    24   ar
    22    24    25   ar
    23    25    26   ar
    24    26    27   ar
    25    27    28   ar
    26    28    29   ar
    27    29    30    1
    28    30    31   ar
    29    31    32   ar
    30    32    33   ar
    31    33    34   ar
    32    34    35   ar
    33    35    36    1
    34    12     6   ar
    35    18    14    1
    36    26    21   ar
    37    35    30   ar
    38    29    25   ar
    39     4     5    1
    40    17    19    1
@<TRIPOS>MOLECULE
*****
 36 40 0 0 0
SMALL
GASTEIGER

@<TRIPOS>ATOM
      1 C         142.4875  139.8855  166.4973 C.3     1  UNL1        0.2588
      2 O         143.3225  142.0281  165.2881 O.2     1  UNL1       -0.2708
      3 C         142.2044  141.1036  165.6688 C.2     1  UNL1        0.2689
      4 N         140.8032  141.3970  165.2211 N.am    1  UNL1       -0.2664
      5 H         140.0693  140.7902  165.4709 H       1  UNL1        0.1564
      6 C         140.5201  142.6150  164.3927 C.ar    1  UNL1        0.1343
      7 C         139.8549  143.8070  165.0145 C.ar    1  UNL1        0.0354
      8 C         139.5718  145.0250  164.1861 C.ar    1  UNL1        0.0158
      9 C         139.9539  145.0510  162.7357 C.ar    1  UNL1        0.0769
     10 CL        139.6708  146.2690  161.9073 Cl      1  UNL1       -0.0806
     11 C         140.6191  143.8590  162.1139 C.ar    1  UNL1        0.1116
     12 N         140.9022  142.6410  162.9424 N.ar    1  UNL1       -0.2281
     13 C         142.5914  140.0008  167.9892 C.3     1  UNL1        0.1261
     14 N         142.1344  141.2522  168.6784 N.3     1  UNL1       -0.2650
     15 C         142.8200  142.4476  169.2709 C.3     1  UNL1        0.1033
     16 C         141.4881  143.0220  169.6531 C.3     1  UNL1        0.1423
     17 O         141.0310  144.2734  170.3424 O.3     1  UNL1       -0.3816
     18 C         140.8025  141.8266  169.0607 C.3     1  UNL1        0.1033
     19 H         141.8023  144.8109  170.5815 H       1  UNL1        0.2105
     20 O         142.6665  138.5522  165.8337 O.3     1  UNL1       -0.4529
     21 C         141.9531  138.2521  164.5487 C.ar    1  UNL1        0.2312
     22 N         140.5647  137.6852  164.5765 N.ar    1  UNL1       -0.1892
     23 C         139.8514  137.3851  163.2916 C.ar    1  UNL1        0.2029
     24 N         140.5265  137.6520  161.9789 N.ar    1  UNL1       -0.2045
     25 C         141.9149  138.2189  161.9512 C.ar    1  UNL1        0.1732
     26 C         142.6282  138.5190  163.2361 C.ar    1  UNL1        0.1099
     27 C         143.9818  139.0695  162.8972 C.ar    1  UNL1        0.1283
     28 N         144.1050  139.1097  161.4028 N.ar    1  UNL1       -0.1606
     29 N         142.8275  138.5840  160.8182 N.ar    1  UNL1       -0.1936
     30 C         142.5172  138.4473  159.3570 C.ar    1  UNL1        0.1759
     31 N         143.0346  137.2684  158.5874 N.ar    1  UNL1       -0.2242
     32 C         142.7243  137.1317  157.1262 C.ar    1  UNL1        0.1006
     33 C         141.8966  138.1741  156.4346 C.ar    1  UNL1        0.0217
     34 C         141.3793  139.3531  157.2042 C.ar    1  UNL1        0.0161
     35 C         141.6896  139.4897  158.6653 C.ar    1  UNL1        0.0935
     36 CL        141.1722  140.6688  159.4349 Cl      1  UNL1       -0.0790
@<TRIPOS>BOND
     1     2     3    2
     2     3     4   am
     3     4     6    1
     4     6     7   ar
     5     7     8   ar
     6     8     9   ar
     7     9    10    1
     8     9    11   ar
     9    11    12   ar
    10     3     1    1
    11     1    13    1
    12    13    14    1
    13    14    15    1
    14    15    16    1
    15    16    17    1
    16    16    18    1
    17     1    20    1
    18    20    21    1
    19    21    22   ar
    20    22    23   ar
    21    23    24   ar
    22    24    25   ar
    23    25    26   ar
    24    26    27   ar
    25    27    28   ar
    26    28    29   ar
    27    29    30    1
    28    30    31   ar
    29    31    32   ar
    30    32    33   ar
    31    33    34   ar
    32    34    35   ar
    33    35    36    1
    34    12     6   ar
    35    18    14    1
    36    26    21   ar
    37    35    30   ar
    38    29    25   ar
    39     4     5    1
    40    17    19    1
@<TRIPOS>MOLECULE
*****
 36 40 0 0 0
SMALL
GASTEIGER

@<TRIPOS>ATOM
      1 C         140.6649  144.4118  161.1781 C.3     1  UNL1        0.2588
      2 O         139.3842  143.9656  158.9621 O.2     1  UNL1       -0.2708
      3 C         140.5240  144.6060  159.6974 C.2     1  UNL1        0.2689
      4 N         141.5229  145.4405  158.9520 N.am    1  UNL1       -0.2664
      5 H         142.2710  145.8608  159.4346 H       1  UNL1        0.1564
      6 C         141.3820  145.6347  157.4713 C.ar    1  UNL1        0.1343
      7 C         142.3376  144.9603  156.5321 C.ar    1  UNL1        0.0354
      8 C         142.1967  145.1545  155.0515 C.ar    1  UNL1        0.0158
      9 C         141.1002  146.0231  154.5099 C.ar    1  UNL1        0.0769
     10 CL        140.9593  146.2173  153.0293 Cl      1  UNL1       -0.0806
     11 C         140.1446  146.6975  155.4491 C.ar    1  UNL1        0.1116
     12 N         140.2855  146.5033  156.9298 N.ar    1  UNL1       -0.2281
     13 C         141.8651  144.9554  161.8949 C.3     1  UNL1        0.1261
     14 N         143.0885  144.1037  162.0619 N.3     1  UNL1       -0.2650
     15 C         144.1271  143.9371  163.1314 C.3     1  UNL1        0.1033
     16 C         144.8187  142.8993  162.2980 C.3     1  UNL1        0.1423
     17 O         146.0421  142.0476  162.4649 O.3     1  UNL1       -0.3816
     18 C         143.7802  143.0659  161.2286 C.3     1  UNL1        0.1033
     19 H         146.4554  142.2396  163.3212 H       1  UNL1        0.2105
     20 O         139.6056  143.6740  161.9419 O.3     1  UNL1       -0.4529
     21 C         139.6240  143.6757  163.4419 C.ar    1  UNL1        0.2312
     22 N         138.8792  144.7343  164.1998 N.ar    1  UNL1       -0.1892
     23 C         138.8976  144.7360  165.6997 C.ar    1  UNL1        0.2029
     24 N         139.6607  143.6790  166.4416 N.ar    1  UNL1       -0.2045
     25 C         140.4055  142.6204  165.6836 C.ar    1  UNL1        0.1732
     26 C         140.3871  142.6187  164.1838 C.ar    1  UNL1        0.1099
     27 C         141.2094  141.4565  163.7114 C.ar    1  UNL1        0.1283
     28 N         141.7360  140.7399  164.9193 N.ar    1  UNL1       -0.1606
     29 N         141.2392  141.4592  166.1383 N.ar    1  UNL1       -0.1936
     30 C         141.5256  141.0834  167.5619 C.ar    1  UNL1        0.1759
     31 N         142.7900  141.5494  168.2207 N.ar    1  UNL1       -0.2242
     32 C         143.0765  141.1735  169.6443 C.ar    1  UNL1        0.1006
     33 C         142.0986  140.3317  170.4091 C.ar    1  UNL1        0.0217
     34 C         140.8342  139.8657  169.7503 C.ar    1  UNL1        0.0161
     35 C         140.5477  140.2415  168.3267 C.ar    1  UNL1        0.0935
     36 CL        139.2833  139.7755  167.6679 Cl      1  UNL1       -0.0790
@<TRIPOS>BOND
     1     2     3    2
     2     3     4   am
     3     4     6    1
     4     6     7   ar
     5     7     8   ar
     6     8     9   ar
     7     9    10    1
     8     9    11   ar
     9    11    12   ar
    10     3     1    1
    11     1    13    1
    12    13    14    1
    13    14    15    1
    14    15    16    1
    15    16    17    1
    16    16    18    1
    17     1    20    1
    18    20    21    1
    19    21    22   ar
    20    22    23   ar
    21    23    24   ar
    22    24    25   ar
    23    25    26   ar
    24    26    27   ar
    25    27    28   ar
    26    28    29   ar
    27    29    30    1
    28    30    31   ar
    29    31    32   ar
    30    32    33   ar
    31    33    34   ar
    32    34    35   ar
    33    35    36    1
    34    12     6   ar
    35    18    14    1
    36    26    21   ar
    37    35    30   ar
    38    29    25   ar
    39     4     5    1
    40    17    19    1
