@<TRIPOS>MOLECULE
*****
 35 38 0 0 0
SMALL
GASTEIGER

@<TRIPOS>ATOM
      1 N         143.2678  140.3607  160.6512 N.3     1  UNL1       -0.2653
      2 C         143.9201  141.5113  161.3587 C.3     1  UNL1        0.1036
      3 C         143.2010  142.8221  161.4800 C.3     1  UNL1        0.1470
      4 C         142.4819  144.1330  161.6013 C.3     1  UNL1        0.1035
      5 N         141.1105  144.2931  161.0150 N.3     1  UNL1       -0.2673
      6 C         140.4583  143.1424  160.3075 C.3     1  UNL1        0.1035
      7 C         141.1774  141.8317  160.1862 C.3     1  UNL1        0.1470
      8 C         141.8965  140.5209  160.0650 C.3     1  UNL1        0.1036
      9 O         141.8296  142.9823  160.8937 O.3     1  UNL1       -0.3530
     10 C         143.9869  139.0499  160.5299 C.3     1  UNL1        0.1202
     11 C         143.5046  137.8559  161.2990 C.3     1  UNL1        0.2228
     12 O         142.0723  137.4232  161.1917 O.3     1  UNL1       -0.4717
     13 C         139.2717  138.0333  164.6608 C.ar    1  UNL1        0.0709
     14 C         140.6610  137.5207  164.8996 C.ar    1  UNL1        0.0135
     15 C         141.5945  137.3174  163.7433 C.ar    1  UNL1        0.0399
     16 C         141.1388  137.6265  162.3481 C.ar    1  UNL1        0.1659
     17 C         139.7495  138.1391  162.1092 C.ar    1  UNL1        0.1745
     18 F         139.2937  138.4483  160.7140 F       1  UNL1       -0.2009
     19 C         138.8159  138.3425  163.2656 C.ar    1  UNL1        0.0430
     20 N         137.4047  138.4400  166.9735 N.1     1  UNL1       -0.1908
     21 C         138.3382  138.2366  165.8171 C.1     1  UNL1        0.1005
     22 C         140.3914  145.6039  161.1363 C.3     1  UNL1        0.0913
     23 C         139.3932  145.8128  162.2363 C.3     1  UNL1        0.1084
     24 N         138.1715  144.9460  162.3150 N.3     1  UNL1       -0.1816
     25 H         138.0382  144.5403  161.3887 H       1  UNL1        0.1485
     26 S         138.1181  143.8126  163.2960 S.O2    1  UNL1        0.0451
     27 O         137.5002  142.9349  162.2483 O.2     1  UNL1       -0.1572
     28 O         138.7360  144.6903  164.3438 O.2     1  UNL1       -0.1572
     29 C         138.0647  142.6791  164.2771 C.3     1  UNL1        0.1952
     30 C         139.3345  142.0345  164.7482 C.ar    1  UNL1        0.0029
     31 C         140.3984  141.6620  163.7585 C.ar    1  UNL1       -0.0025
     32 C         141.6683  141.0173  164.2295 C.ar    1  UNL1       -0.0003
     33 C         141.8742  140.7451  165.6902 C.ar    1  UNL1       -0.0000
     34 C         140.8103  141.1176  166.6798 C.ar    1  UNL1       -0.0003
     35 C         139.5405  141.7623  166.2088 C.ar    1  UNL1       -0.0025
@<TRIPOS>BOND
     1    20    21    3
     2    21    13    1
     3    13    14   ar
     4    14    15   ar
     5    15    16   ar
     6    16    12    1
     7    12    11    1
     8    11    10    1
     9    10     1    1
    10     1     2    1
    11     2     3    1
    12     3     4    1
    13     4     5    1
    14     5    22    1
    15    22    23    1
    16    23    24    1
    17    24    26    1
    18    26    27    2
    19    26    28    2
    20    26    29    1
    21    29    30    1
    22    30    31   ar
    23    31    32   ar
    24    32    33   ar
    25    33    34   ar
    26    34    35   ar
    27     5     6    1
    28     6     7    1
    29     7     8    1
    30     7     9    1
    31    16    17   ar
    32    17    18    1
    33    17    19   ar
    34    19    13   ar
    35     8     1    1
    36     9     3    1
    37    35    30   ar
    38    24    25    1
@<TRIPOS>MOLECULE
*****
 35 38 0 0 0
SMALL
GASTEIGER

@<TRIPOS>ATOM
      1 N         143.2528  140.0125  163.8927 N.3     1  UNL1       -0.2653
      2 C         144.1081  141.2402  163.7867 C.3     1  UNL1        0.1036
      3 C         143.6433  142.4100  162.9710 C.3     1  UNL1        0.1470
      4 C         143.1784  143.5798  162.1553 C.3     1  UNL1        0.1035
      5 N         141.8582  143.5220  161.4456 N.3     1  UNL1       -0.2673
      6 C         141.0028  142.2943  161.5516 C.3     1  UNL1        0.1035
      7 C         141.4677  141.1245  162.3673 C.3     1  UNL1        0.1470
      8 C         141.9325  139.9547  163.1830 C.3     1  UNL1        0.1036
      9 O         142.3230  142.3521  162.2613 O.3     1  UNL1       -0.3530
     10 C         143.7176  138.8427  164.7085 C.3     1  UNL1        0.1202
     11 C         142.9171  138.3890  165.8931 C.3     1  UNL1        0.2228
     12 O         143.2982  138.8387  167.2725 O.3     1  UNL1       -0.4717
     13 C         141.2599  142.3990  169.1217 C.ar    1  UNL1        0.0709
     14 C         141.8113  142.4897  167.7296 C.ar    1  UNL1        0.0135
     15 C         142.4907  141.3029  167.1132 C.ar    1  UNL1        0.0399
     16 C         142.6188  140.0254  167.8889 C.ar    1  UNL1        0.1659
     17 C         142.0674  139.9347  169.2809 C.ar    1  UNL1        0.1745
     18 F         142.1955  138.6572  170.0565 F       1  UNL1       -0.2009
     19 C         141.3880  141.1215  169.8973 C.ar    1  UNL1        0.0430
     20 N         139.9011  144.7725  170.3544 N.1     1  UNL1       -0.1908
     21 C         140.5805  143.5858  169.7381 C.1     1  UNL1        0.1005
     22 C         141.3933  144.6918  160.6299 C.3     1  UNL1        0.0913
     23 C         140.2986  145.5782  161.1457 C.3     1  UNL1        0.1084
     24 N         140.1621  145.8212  162.6195 N.3     1  UNL1       -0.1816
     25 H         139.9038  146.8013  162.7336 H       1  UNL1        0.1485
     26 S         139.1832  145.0188  163.4244 S.O2    1  UNL1        0.0451
     27 O         140.2036  144.8663  164.5132 O.2     1  UNL1       -0.1572
     28 O         138.1629  145.1714  162.3356 O.2     1  UNL1       -0.1572
     29 C         138.2043  144.2164  164.2293 C.3     1  UNL1        0.1952
     30 C         138.2653  142.7178  164.2073 C.ar    1  UNL1        0.0029
     31 C         137.6215  141.9573  163.0860 C.ar    1  UNL1       -0.0025
     32 C         137.6826  140.4587  163.0640 C.ar    1  UNL1       -0.0003
     33 C         138.3875  139.7206  164.1633 C.ar    1  UNL1       -0.0000
     34 C         139.0313  140.4811  165.2845 C.ar    1  UNL1       -0.0003
     35 C         138.9702  141.9797  165.3065 C.ar    1  UNL1       -0.0025
@<TRIPOS>BOND
     1    20    21    3
     2    21    13    1
     3    13    14   ar
     4    14    15   ar
     5    15    16   ar
     6    16    12    1
     7    12    11    1
     8    11    10    1
     9    10     1    1
    10     1     2    1
    11     2     3    1
    12     3     4    1
    13     4     5    1
    14     5    22    1
    15    22    23    1
    16    23    24    1
    17    24    26    1
    18    26    27    2
    19    26    28    2
    20    26    29    1
    21    29    30    1
    22    30    31   ar
    23    31    32   ar
    24    32    33   ar
    25    33    34   ar
    26    34    35   ar
    27     5     6    1
    28     6     7    1
    29     7     8    1
    30     7     9    1
    31    16    17   ar
    32    17    18    1
    33    17    19   ar
    34    19    13   ar
    35     8     1    1
    36     9     3    1
    37    35    30   ar
    38    24    25    1
@<TRIPOS>MOLECULE
*****
 35 38 0 0 0
SMALL
GASTEIGER

@<TRIPOS>ATOM
      1 N         144.0409  139.6469  163.8387 N.3     1  UNL1       -0.2653
      2 C         143.7893  139.0421  162.4893 C.3     1  UNL1        0.1036
      3 C         142.4150  138.5628  162.1268 C.3     1  UNL1        0.1470
      4 C         141.0406  138.0834  161.7642 C.3     1  UNL1        0.1035
      5 N         139.9180  138.2089  162.7510 N.3     1  UNL1       -0.2673
      6 C         140.1696  138.8137  164.1005 C.3     1  UNL1        0.1035
      7 C         141.5439  139.2931  164.4630 C.3     1  UNL1        0.1470
      8 C         142.9182  139.7724  164.8255 C.3     1  UNL1        0.1036
      9 O         141.2923  138.6882  163.1136 O.3     1  UNL1       -0.3530
     10 C         145.4153  140.1263  164.2013 C.3     1  UNL1        0.1202
     11 C         145.9018  141.4550  163.7034 C.3     1  UNL1        0.2228
     12 O         145.3672  142.7220  164.3026 O.3     1  UNL1       -0.4717
     13 C         141.8611  144.8057  162.4011 C.ar    1  UNL1        0.0709
     14 C         142.3459  143.4978  161.8492 C.ar    1  UNL1        0.0135
     15 C         143.5145  142.8033  162.4830 C.ar    1  UNL1        0.0399
     16 C         144.1985  143.4165  163.6688 C.ar    1  UNL1        0.1659
     17 C         143.7138  144.7243  164.2208 C.ar    1  UNL1        0.1745
     18 F         144.3978  145.3376  165.4065 F       1  UNL1       -0.2009
     19 C         142.5451  145.4189  163.5869 C.ar    1  UNL1        0.0430
     20 N         139.5238  146.1948  161.1335 N.1     1  UNL1       -0.1908
     21 C         140.6925  145.5003  161.7673 C.1     1  UNL1        0.1005
     22 C         138.5436  137.7295  162.3885 C.3     1  UNL1        0.0913
     23 C         137.5671  138.6689  161.7450 C.3     1  UNL1        0.1084
     24 N         138.0563  139.7331  160.8078 N.3     1  UNL1       -0.1816
     25 H         137.4966  139.6575  159.9585 H       1  UNL1        0.1485
     26 S         138.0193  141.1737  161.2240 S.O2    1  UNL1        0.0451
     27 O         139.1025  141.4872  160.2350 O.2     1  UNL1       -0.1572
     28 O         136.9361  140.8601  162.2131 O.2     1  UNL1       -0.1572
     29 C         137.9823  142.6143  161.6402 C.3     1  UNL1        0.1952
     30 C         138.4980  143.0187  162.9895 C.ar    1  UNL1        0.0029
     31 C         137.8903  144.1888  163.7049 C.ar    1  UNL1       -0.0025
     32 C         138.4061  144.5931  165.0542 C.ar    1  UNL1       -0.0003
     33 C         139.5294  143.8273  165.6881 C.ar    1  UNL1       -0.0000
     34 C         140.1370  142.6573  164.9727 C.ar    1  UNL1       -0.0003
     35 C         139.6213  142.2530  163.6234 C.ar    1  UNL1       -0.0025
@<TRIPOS>BOND
     1    20    21    3
     2    21    13    1
     3    13    14   ar
     4    14    15   ar
     5    15    16   ar
     6    16    12    1
     7    12    11    1
     8    11    10    1
     9    10     1    1
    10     1     2    1
    11     2     3    1
    12     3     4    1
    13     4     5    1
    14     5    22    1
    15    22    23    1
    16    23    24    1
    17    24    26    1
    18    26    27    2
    19    26    28    2
    20    26    29    1
    21    29    30    1
    22    30    31   ar
    23    31    32   ar
    24    32    33   ar
    25    33    34   ar
    26    34    35   ar
    27     5     6    1
    28     6     7    1
    29     7     8    1
    30     7     9    1
    31    16    17   ar
    32    17    18    1
    33    17    19   ar
    34    19    13   ar
    35     8     1    1
    36     9     3    1
    37    35    30   ar
    38    24    25    1
@<TRIPOS>MOLECULE
*****
 35 38 0 0 0
SMALL
GASTEIGER

@<TRIPOS>ATOM
      1 N         138.3730  140.6285  165.1080 N.3     1  UNL1       -0.2653
      2 C         137.7150  140.8835  163.7844 C.3     1  UNL1        0.1036
      3 C         137.9918  142.1573  163.0423 C.3     1  UNL1        0.1470
      4 C         138.2686  143.4312  162.3002 C.3     1  UNL1        0.1035
      5 N         139.2034  144.4500  162.8817 N.3     1  UNL1       -0.2673
      6 C         139.8614  144.1950  164.2054 C.3     1  UNL1        0.1035
      7 C         139.5846  142.9212  164.9475 C.3     1  UNL1        0.1470
      8 C         139.3078  141.6474  165.6895 C.3     1  UNL1        0.1036
      9 O         138.9266  143.1762  163.6239 O.3     1  UNL1       -0.3530
     10 C         138.0962  139.3547  165.8502 C.3     1  UNL1        0.1202
     11 C         138.8385  138.1015  165.4919 C.3     1  UNL1        0.2228
     12 O         138.6404  137.4715  164.1450 O.3     1  UNL1       -0.4717
     13 C         141.5660  138.2910  160.8254 C.ar    1  UNL1        0.0709
     14 C         140.1281  138.6904  160.6736 C.ar    1  UNL1        0.0135
     15 C         139.1529  138.4173  161.7801 C.ar    1  UNL1        0.0399
     16 C         139.6156  137.7447  163.0385 C.ar    1  UNL1        0.1659
     17 C         141.0534  137.3453  163.1904 C.ar    1  UNL1        0.1745
     18 F         141.5160  136.6727  164.4488 F       1  UNL1       -0.2009
     19 C         142.0286  137.6184  162.0838 C.ar    1  UNL1        0.0430
     20 N         143.5163  138.8374  158.6124 N.1     1  UNL1       -0.1908
     21 C         142.5412  138.5642  159.7189 C.1     1  UNL1        0.1005
     22 C         139.4802  145.7239  162.1396 C.3     1  UNL1        0.0913
     23 C         140.2246  145.6869  160.8379 C.3     1  UNL1        0.1084
     24 N         141.6828  145.3358  160.8175 N.3     1  UNL1       -0.1816
     25 H         142.0776  145.6662  161.6980 H       1  UNL1        0.1485
     26 S         142.1077  143.9057  160.6620 S.O2    1  UNL1        0.0451
     27 O         140.8754  143.6275  159.8533 O.2     1  UNL1       -0.1572
     28 O         143.3400  144.1839  161.4707 O.2     1  UNL1       -0.1572
     29 C         142.5326  142.4755  160.5066 C.3     1  UNL1        0.1952
     30 C         142.9412  141.6794  161.7104 C.ar    1  UNL1        0.0029
     31 C         144.3314  141.1243  161.8061 C.ar    1  UNL1       -0.0025
     32 C         144.7399  140.3282  163.0099 C.ar    1  UNL1       -0.0003
     33 C         143.7582  140.0873  164.1182 C.ar    1  UNL1       -0.0000
     34 C         142.3680  140.6424  164.0226 C.ar    1  UNL1       -0.0003
     35 C         141.9595  141.4385  162.8187 C.ar    1  UNL1       -0.0025
@<TRIPOS>BOND
     1    20    21    3
     2    21    13    1
     3    13    14   ar
     4    14    15   ar
     5    15    16   ar
     6    16    12    1
     7    12    11    1
     8    11    10    1
     9    10     1    1
    10     1     2    1
    11     2     3    1
    12     3     4    1
    13     4     5    1
    14     5    22    1
    15    22    23    1
    16    23    24    1
    17    24    26    1
    18    26    27    2
    19    26    28    2
    20    26    29    1
    21    29    30    1
    22    30    31   ar
    23    31    32   ar
    24    32    33   ar
    25    33    34   ar
    26    34    35   ar
    27     5     6    1
    28     6     7    1
    29     7     8    1
    30     7     9    1
    31    16    17   ar
    32    17    18    1
    33    17    19   ar
    34    19    13   ar
    35     8     1    1
    36     9     3    1
    37    35    30   ar
    38    24    25    1
@<TRIPOS>MOLECULE
*****
 35 38 0 0 0
SMALL
GASTEIGER

@<TRIPOS>ATOM
      1 N         141.2488  145.1348  162.3976 N.3     1  UNL1       -0.2653
      2 C         141.8510  144.2797  161.3223 C.3     1  UNL1        0.1036
      3 C         142.9667  143.3334  161.6535 C.3     1  UNL1        0.1470
      4 C         144.0824  142.3870  161.9846 C.3     1  UNL1        0.1035
      5 N         144.5959  142.2958  163.3910 N.3     1  UNL1       -0.2673
      6 C         143.9937  143.1509  164.4663 C.3     1  UNL1        0.1035
      7 C         142.8780  144.0972  164.1351 C.3     1  UNL1        0.1470
      8 C         141.7623  145.0435  163.8040 C.3     1  UNL1        0.1036
      9 O         143.4802  143.2421  163.0599 O.3     1  UNL1       -0.3530
     10 C         140.1331  146.0812  162.0664 C.3     1  UNL1        0.1202
     11 C         138.7822  145.5467  161.6930 C.3     1  UNL1        0.2228
     12 O         137.8819  144.9790  162.7500 O.3     1  UNL1       -0.4717
     13 C         138.4083  140.7200  164.1042 C.ar    1  UNL1        0.0709
     14 C         137.8681  141.0104  162.7352 C.ar    1  UNL1        0.0135
     15 C         137.6927  142.4301  162.2839 C.ar    1  UNL1        0.0399
     16 C         138.0573  143.5593  163.2014 C.ar    1  UNL1        0.1659
     17 C         138.5975  143.2690  164.5702 C.ar    1  UNL1        0.1745
     18 F         138.9622  144.3982  165.4877 F       1  UNL1       -0.2009
     19 C         138.7730  141.8493  165.0217 C.ar    1  UNL1        0.0430
     20 N         138.7593  137.8807  165.0069 N.1     1  UNL1       -0.1908
     21 C         138.5838  139.3004  164.5556 C.1     1  UNL1        0.1005
     22 C         145.7116  141.3495  163.7221 C.3     1  UNL1        0.0913
     23 C         145.4081  140.0257  164.3592 C.3     1  UNL1        0.1084
     24 N         144.1530  139.2890  163.9964 N.3     1  UNL1       -0.1816
     25 H         144.4353  138.3554  163.6980 H       1  UNL1        0.1485
     26 S         143.0682  139.1079  165.0163 S.O2    1  UNL1        0.0451
     27 O         142.1136  139.8564  164.1340 O.2     1  UNL1       -0.1572
     28 O         144.0227  138.3595  165.8987 O.2     1  UNL1       -0.1572
     29 C         141.9834  138.9269  166.0364 C.3     1  UNL1        0.1952
     30 C         141.6492  140.0423  166.9820 C.ar    1  UNL1        0.0029
     31 C         142.6081  141.1809  167.1673 C.ar    1  UNL1       -0.0025
     32 C         142.2739  142.2964  168.1129 C.ar    1  UNL1       -0.0003
     33 C         140.9810  142.2733  168.8731 C.ar    1  UNL1       -0.0000
     34 C         140.0222  141.1347  168.6877 C.ar    1  UNL1       -0.0003
     35 C         140.3564  140.0193  167.7421 C.ar    1  UNL1       -0.0025
@<TRIPOS>BOND
     1    20    21    3
     2    21    13    1
     3    13    14   ar
     4    14    15   ar
     5    15    16   ar
     6    16    12    1
     7    12    11    1
     8    11    10    1
     9    10     1    1
    10     1     2    1
    11     2     3    1
    12     3     4    1
    13     4     5    1
    14     5    22    1
    15    22    23    1
    16    23    24    1
    17    24    26    1
    18    26    27    2
    19    26    28    2
    20    26    29    1
    21    29    30    1
    22    30    31   ar
    23    31    32   ar
    24    32    33   ar
    25    33    34   ar
    26    34    35   ar
    27     5     6    1
    28     6     7    1
    29     7     8    1
    30     7     9    1
    31    16    17   ar
    32    17    18    1
    33    17    19   ar
    34    19    13   ar
    35     8     1    1
    36     9     3    1
    37    35    30   ar
    38    24    25    1
@<TRIPOS>MOLECULE
*****
 35 38 0 0 0
SMALL
GASTEIGER

@<TRIPOS>ATOM
      1 N         140.8755  144.2159  160.3451 N.3     1  UNL1       -0.2653
      2 C         140.0100  143.0798  159.8869 C.3     1  UNL1        0.1036
      3 C         140.6039  141.7165  159.6904 C.3     1  UNL1        0.1470
      4 C         141.1978  140.3531  159.4939 C.3     1  UNL1        0.1035
      5 N         142.6572  140.1260  159.7557 N.3     1  UNL1       -0.2673
      6 C         143.5227  141.2622  160.2140 C.3     1  UNL1        0.1035
      7 C         142.9288  142.6255  160.4105 C.3     1  UNL1        0.1470
      8 C         142.3349  143.9888  160.6069 C.3     1  UNL1        0.1036
      9 O         142.0633  141.4894  159.9522 O.3     1  UNL1       -0.3530
     10 C         140.2816  145.5793  160.5416 C.3     1  UNL1        0.1202
     11 C         139.6423  145.9374  161.8504 C.3     1  UNL1        0.2228
     12 O         138.3200  145.3382  162.2281 O.3     1  UNL1       -0.4717
     13 C         138.1765  141.5018  164.5758 C.ar    1  UNL1        0.0709
     14 C         137.7139  141.5258  163.1491 C.ar    1  UNL1        0.0135
     15 C         137.7617  142.8046  162.3665 C.ar    1  UNL1        0.0399
     16 C         138.2721  144.0594  163.0106 C.ar    1  UNL1        0.1659
     17 C         138.7348  144.0355  164.4372 C.ar    1  UNL1        0.1745
     18 F         139.2452  145.2903  165.0813 F       1  UNL1       -0.2009
     19 C         138.6870  142.7566  165.2199 C.ar    1  UNL1        0.0430
     20 N         138.0809  138.9443  166.1409 N.1     1  UNL1       -0.1908
     21 C         138.1287  140.2231  165.3583 C.1     1  UNL1        0.1005
     22 C         143.2512  138.7627  159.5593 C.3     1  UNL1        0.0913
     23 C         143.5053  137.8775  160.7434 C.3     1  UNL1        0.1084
     24 N         142.3612  137.1803  161.4178 N.3     1  UNL1       -0.1816
     25 H         142.7096  136.2721  161.7248 H       1  UNL1        0.1485
     26 S         141.6926  137.8109  162.6033 S.O2    1  UNL1        0.0451
     27 O         143.0339  138.0653  163.2245 O.2     1  UNL1       -0.1572
     28 O         140.3512  137.5564  161.9820 O.2     1  UNL1       -0.1572
     29 C         141.0238  138.4414  163.7887 C.3     1  UNL1        0.1952
     30 C         141.4881  139.7771  164.2892 C.ar    1  UNL1        0.0029
     31 C         141.9158  139.9353  165.7182 C.ar    1  UNL1       -0.0025
     32 C         142.3801  141.2710  166.2187 C.ar    1  UNL1       -0.0003
     33 C         142.4167  142.4484  165.2900 C.ar    1  UNL1       -0.0000
     34 C         141.9890  142.2902  163.8611 C.ar    1  UNL1       -0.0003
     35 C         141.5247  140.9545  163.3606 C.ar    1  UNL1       -0.0025
@<TRIPOS>BOND
     1    20    21    3
     2    21    13    1
     3    13    14   ar
     4    14    15   ar
     5    15    16   ar
     6    16    12    1
     7    12    11    1
     8    11    10    1
     9    10     1    1
    10     1     2    1
    11     2     3    1
    12     3     4    1
    13     4     5    1
    14     5    22    1
    15    22    23    1
    16    23    24    1
    17    24    26    1
    18    26    27    2
    19    26    28    2
    20    26    29    1
    21    29    30    1
    22    30    31   ar
    23    31    32   ar
    24    32    33   ar
    25    33    34   ar
    26    34    35   ar
    27     5     6    1
    28     6     7    1
    29     7     8    1
    30     7     9    1
    31    16    17   ar
    32    17    18    1
    33    17    19   ar
    34    19    13   ar
    35     8     1    1
    36     9     3    1
    37    35    30   ar
    38    24    25    1
@<TRIPOS>MOLECULE
*****
 35 38 0 0 0
SMALL
GASTEIGER

@<TRIPOS>ATOM
      1 N         138.9680  138.7690  162.4242 N.3     1  UNL1       -0.2653
      2 C         140.1004  138.6991  161.4429 C.3     1  UNL1        0.1036
      3 C         140.2925  139.7977  160.4399 C.3     1  UNL1        0.1470
      4 C         140.4846  140.8964  159.4368 C.3     1  UNL1        0.1035
      5 N         139.5444  142.0650  159.4151 N.3     1  UNL1       -0.2673
      6 C         138.4120  142.1348  160.3964 C.3     1  UNL1        0.1035
      7 C         138.2199  141.0362  161.3994 C.3     1  UNL1        0.1470
      8 C         138.0278  139.9376  162.4024 C.3     1  UNL1        0.1036
      9 O         139.3522  140.9663  160.4182 O.3     1  UNL1       -0.3530
     10 C         138.7758  137.6704  163.4272 C.3     1  UNL1        0.1202
     11 C         139.1127  137.9047  164.8700 C.3     1  UNL1        0.2228
     12 O         140.3210  138.7147  165.2361 O.3     1  UNL1       -0.4717
     13 C         140.5661  140.6923  169.2708 C.ar    1  UNL1        0.0709
     14 C         139.2451  140.2050  168.7534 C.ar    1  UNL1        0.0135
     15 C         139.1635  139.5458  167.4085 C.ar    1  UNL1        0.0399
     16 C         140.4027  139.3739  166.5810 C.ar    1  UNL1        0.1659
     17 C         141.7236  139.8612  167.0984 C.ar    1  UNL1        0.1745
     18 F         142.9628  139.6892  166.2709 F       1  UNL1       -0.2009
     19 C         141.8053  140.5204  168.4433 C.ar    1  UNL1        0.0430
     20 N         140.7295  142.0106  171.9606 N.1     1  UNL1       -0.1908
     21 C         140.6478  141.3514  170.6157 C.1     1  UNL1        0.1005
     22 C         139.7365  143.1636  158.4121 C.3     1  UNL1        0.0913
     23 C         140.5518  144.3710  158.7691 C.3     1  UNL1        0.1084
     24 N         139.9379  145.4803  159.5706 N.3     1  UNL1       -0.1816
     25 H         138.9263  145.3747  159.4930 H       1  UNL1        0.1485
     26 S         140.2487  145.6104  161.0322 S.O2    1  UNL1        0.0451
     27 O         141.3838  144.6422  160.8770 O.2     1  UNL1       -0.1572
     28 O         139.1137  146.5787  161.1875 O.2     1  UNL1       -0.1572
     29 C         140.5596  145.7405  162.4940 C.3     1  UNL1        0.1952
     30 C         140.0704  144.7025  163.4600 C.ar    1  UNL1        0.0029
     31 C         138.6256  144.2992  163.4595 C.ar    1  UNL1       -0.0025
     32 C         138.1364  143.2612  164.4256 C.ar    1  UNL1       -0.0003
     33 C         139.0920  142.6265  165.3921 C.ar    1  UNL1       -0.0000
     34 C         140.5368  143.0299  165.3926 C.ar    1  UNL1       -0.0003
     35 C         141.0259  144.0679  164.4265 C.ar    1  UNL1       -0.0025
@<TRIPOS>BOND
     1    20    21    3
     2    21    13    1
     3    13    14   ar
     4    14    15   ar
     5    15    16   ar
     6    16    12    1
     7    12    11    1
     8    11    10    1
     9    10     1    1
    10     1     2    1
    11     2     3    1
    12     3     4    1
    13     4     5    1
    14     5    22    1
    15    22    23    1
    16    23    24    1
    17    24    26    1
    18    26    27    2
    19    26    28    2
    20    26    29    1
    21    29    30    1
    22    30    31   ar
    23    31    32   ar
    24    32    33   ar
    25    33    34   ar
    26    34    35   ar
    27     5     6    1
    28     6     7    1
    29     7     8    1
    30     7     9    1
    31    16    17   ar
    32    17    18    1
    33    17    19   ar
    34    19    13   ar
    35     8     1    1
    36     9     3    1
    37    35    30   ar
    38    24    25    1
@<TRIPOS>MOLECULE
*****
 35 38 0 0 0
SMALL
GASTEIGER

@<TRIPOS>ATOM
      1 N         139.6810  137.9250  164.3384 N.3     1  UNL1       -0.2653
      2 C         139.1126  137.9620  162.9508 C.3     1  UNL1        0.1036
      3 C         140.0212  138.1565  161.7732 C.3     1  UNL1        0.1470
      4 C         140.9297  138.3511  160.5955 C.3     1  UNL1        0.1035
      5 N         142.4065  138.5085  160.8056 N.3     1  UNL1       -0.2673
      6 C         142.9749  138.4715  162.1933 C.3     1  UNL1        0.1035
      7 C         142.0663  138.2770  163.3709 C.3     1  UNL1        0.1470
      8 C         141.1578  138.0825  164.5485 C.3     1  UNL1        0.1036
      9 O         141.4980  138.3140  161.9833 O.3     1  UNL1       -0.3530
     10 C         138.7725  137.7305  165.5161 C.3     1  UNL1        0.1202
     11 C         138.1417  138.9180  166.1809 C.3     1  UNL1        0.2228
     12 O         138.9744  140.1197  166.5166 O.3     1  UNL1       -0.4717
     13 C         139.1210  143.6167  163.6883 C.ar    1  UNL1        0.0709
     14 C         138.2290  142.4480  163.3905 C.ar    1  UNL1        0.0135
     15 C         138.1801  141.2824  164.3332 C.ar    1  UNL1        0.0399
     16 C         139.0233  141.2853  165.5738 C.ar    1  UNL1        0.1659
     17 C         139.9153  142.4539  165.8717 C.ar    1  UNL1        0.1745
     18 F         140.7584  142.4568  167.1122 F       1  UNL1       -0.2009
     19 C         139.9642  143.6196  164.9288 C.ar    1  UNL1        0.0430
     20 N         139.2188  145.9479  161.8027 N.1     1  UNL1       -0.1908
     21 C         139.1699  144.7823  162.7455 C.1     1  UNL1        0.1005
     22 C         143.3150  138.7030  159.6280 C.3     1  UNL1        0.0913
     23 C         143.7647  140.0825  159.2474 C.3     1  UNL1        0.1084
     24 N         142.7527  141.1250  158.8745 N.3     1  UNL1       -0.1816
     25 H         141.8764  140.6344  158.6965 H       1  UNL1        0.1485
     26 S         142.4388  142.2402  159.8273 S.O2    1  UNL1        0.0451
     27 O         143.8598  142.7130  159.7420 O.2     1  UNL1       -0.1572
     28 O         141.0179  141.7673  159.9126 O.2     1  UNL1       -0.1572
     29 C         142.1249  143.3554  160.7801 C.3     1  UNL1        0.1952
     30 C         142.6585  143.3171  162.1815 C.ar    1  UNL1        0.0029
     31 C         142.7088  142.0179  162.9296 C.ar    1  UNL1       -0.0025
     32 C         143.2425  141.9796  164.3310 C.ar    1  UNL1       -0.0003
     33 C         143.7259  143.2405  164.9841 C.ar    1  UNL1       -0.0000
     34 C         143.6756  144.5396  164.2360 C.ar    1  UNL1       -0.0003
     35 C         143.1419  144.5779  162.8346 C.ar    1  UNL1       -0.0025
@<TRIPOS>BOND
     1    20    21    3
     2    21    13    1
     3    13    14   ar
     4    14    15   ar
     5    15    16   ar
     6    16    12    1
     7    12    11    1
     8    11    10    1
     9    10     1    1
    10     1     2    1
    11     2     3    1
    12     3     4    1
    13     4     5    1
    14     5    22    1
    15    22    23    1
    16    23    24    1
    17    24    26    1
    18    26    27    2
    19    26    28    2
    20    26    29    1
    21    29    30    1
    22    30    31   ar
    23    31    32   ar
    24    32    33   ar
    25    33    34   ar
    26    34    35   ar
    27     5     6    1
    28     6     7    1
    29     7     8    1
    30     7     9    1
    31    16    17   ar
    32    17    18    1
    33    17    19   ar
    34    19    13   ar
    35     8     1    1
    36     9     3    1
    37    35    30   ar
    38    24    25    1
@<TRIPOS>MOLECULE
*****
 35 38 0 0 0
SMALL
GASTEIGER

@<TRIPOS>ATOM
      1 N         139.4105  137.6342  164.4970 N.3     1  UNL1       -0.2653
      2 C         138.8460  137.8665  163.1269 C.3     1  UNL1        0.1036
      3 C         139.7672  138.0816  161.9628 C.3     1  UNL1        0.1470
      4 C         140.6883  138.2968  160.7986 C.3     1  UNL1        0.1035
      5 N         142.1740  138.2795  161.0046 N.3     1  UNL1       -0.2673
      6 C         142.7385  138.0471  162.3748 C.3     1  UNL1        0.1035
      7 C         141.8174  137.8320  163.5389 C.3     1  UNL1        0.1470
      8 C         140.8962  137.6169  164.7030 C.3     1  UNL1        0.1036
      9 O         141.2529  138.0644  162.1688 O.3     1  UNL1       -0.3530
     10 C         138.4894  137.4190  165.6612 C.3     1  UNL1        0.1202
     11 C         138.0592  138.5840  166.5024 C.3     1  UNL1        0.2228
     12 O         138.5467  139.9648  166.1769 O.3     1  UNL1       -0.4717
     13 C         142.0985  141.6680  168.3525 C.ar    1  UNL1        0.0709
     14 C         142.0764  141.6482  166.8527 C.ar    1  UNL1        0.0135
     15 C         140.8925  141.0804  166.1276 C.ar    1  UNL1        0.0399
     16 C         139.7306  140.5325  166.9021 C.ar    1  UNL1        0.1659
     17 C         139.7527  140.5524  168.4018 C.ar    1  UNL1        0.1745
     18 F         138.5908  140.0045  169.1763 F       1  UNL1       -0.2009
     19 C         140.9367  141.1201  169.1270 C.ar    1  UNL1        0.0430
     20 N         144.4664  142.8035  169.8028 N.1     1  UNL1       -0.1908
     21 C         143.2825  142.2358  169.0776 C.1     1  UNL1        0.1005
     22 C         143.0952  138.4946  159.8405 C.3     1  UNL1        0.0913
     23 C         143.8278  139.7954  159.6942 C.3     1  UNL1        0.1084
     24 N         143.1042  141.0119  159.1979 N.3     1  UNL1       -0.1816
     25 H         142.1482  140.7223  158.9917 H       1  UNL1        0.1485
     26 S         143.0095  142.2333  160.0634 S.O2    1  UNL1        0.0451
     27 O         144.2985  142.7408  159.4882 O.2     1  UNL1       -0.1572
     28 O         141.7205  141.7259  160.6385 O.2     1  UNL1       -0.1572
     29 C         142.9148  143.4548  160.9289 C.3     1  UNL1        0.1952
     30 C         143.4920  143.4396  162.3133 C.ar    1  UNL1        0.0029
     31 C         143.3678  144.6497  163.1910 C.ar    1  UNL1       -0.0025
     32 C         143.9451  144.6345  164.5754 C.ar    1  UNL1       -0.0003
     33 C         144.6465  143.4092  165.0821 C.ar    1  UNL1       -0.0000
     34 C         144.7706  142.1991  164.2044 C.ar    1  UNL1       -0.0003
     35 C         144.1934  142.2144  162.8200 C.ar    1  UNL1       -0.0025
@<TRIPOS>BOND
     1    20    21    3
     2    21    13    1
     3    13    14   ar
     4    14    15   ar
     5    15    16   ar
     6    16    12    1
     7    12    11    1
     8    11    10    1
     9    10     1    1
    10     1     2    1
    11     2     3    1
    12     3     4    1
    13     4     5    1
    14     5    22    1
    15    22    23    1
    16    23    24    1
    17    24    26    1
    18    26    27    2
    19    26    28    2
    20    26    29    1
    21    29    30    1
    22    30    31   ar
    23    31    32   ar
    24    32    33   ar
    25    33    34   ar
    26    34    35   ar
    27     5     6    1
    28     6     7    1
    29     7     8    1
    30     7     9    1
    31    16    17   ar
    32    17    18    1
    33    17    19   ar
    34    19    13   ar
    35     8     1    1
    36     9     3    1
    37    35    30   ar
    38    24    25    1
