@<TRIPOS>MOLECULE
*****
 29 31 0 0 0
SMALL
GASTEIGER

@<TRIPOS>ATOM
      1 C         140.1917  140.4723  167.2599 C.ar    1  UNL1        0.0303
      2 C         140.5791  140.4031  165.8125 C.ar    1  UNL1        0.0147
      3 C         139.7416  139.6158  164.8488 C.ar    1  UNL1        0.0505
      4 C         138.5167  138.8977  165.3326 C.ar    1  UNL1        0.0170
      5 C         138.1293  138.9669  166.7800 C.ar    1  UNL1        0.0307
      6 C         138.9669  139.7542  167.7437 C.ar    1  UNL1        0.1383
      7 F         138.5795  139.8234  169.1912 F       1  UNL1       -0.2044
      8 C         140.2944  142.3769  167.5441 C.3     1  UNL1        0.0336
      9 C         141.0293  141.2596  168.2237 C.3     1  UNL1        0.1262
     10 C         141.4732  139.8690  168.5685 C.2     1  UNL1        0.0068
     11 C         142.4995  139.6536  169.6411 C.2     1  UNL1        0.0357
     12 S         143.0818  140.8290  170.3688 S.3     1  UNL1       -0.0536
     13 C         142.6378  142.2196  170.0239 C.2     1  UNL1        0.1526
     14 N         143.2201  143.3950  170.7516 N.pl3   1  UNL1       -0.3378
     15 N         141.6116  142.4350  168.9514 N.2     1  UNL1       -0.2464
     16 H         143.8937  143.2537  171.4556 H       1  UNL1        0.1442
     17 H         142.9287  144.3077  170.5253 H       1  UNL1        0.1442
     18 N         140.1289  139.5465  163.4013 N.am    1  UNL1       -0.2791
     19 C         140.8133  138.3239  162.8657 C.2     1  UNL1        0.2672
     20 O         141.1104  137.1706  163.7777 O.2     1  UNL1       -0.2682
     21 H         139.9339  140.3035  162.8028 H       1  UNL1        0.1552
     22 C         141.2006  138.2546  161.4183 C.ar    1  UNL1        0.1348
     23 C         142.5810  137.8129  161.0316 C.ar    1  UNL1        0.0245
     24 C         142.9683  137.7436  159.5840 C.ar    1  UNL1        0.0135
     25 C         141.9753  138.1161  158.5233 C.ar    1  UNL1        0.0876
     26 C         140.5949  138.5578  158.9100 C.ar    1  UNL1        0.1092
     27 N         140.2076  138.6271  160.3575 N.ar    1  UNL1       -0.2385
     28 C         142.3626  138.0468  157.0759 C.1     1  UNL1        0.1020
     29 N         142.7499  137.9775  155.6283 N.1     1  UNL1       -0.1908
@<TRIPOS>BOND
     1     9     8    1
     2     9     1    1
     3     1     2   ar
     4     2     3   ar
     5     3    18    1
     6    18    19   am
     7    19    20    2
     8    19    22    1
     9    22    23   ar
    10    23    24   ar
    11    24    25   ar
    12    25    28    1
    13    28    29    3
    14    25    26   ar
    15    26    27   ar
    16     3     4   ar
    17     4     5   ar
    18     5     6   ar
    19     6     7    1
    20     9    10    1
    21    10    11    2
    22    11    12    1
    23    12    13    1
    24    13    14    1
    25    13    15    2
    26    15     9    1
    27     6     1   ar
    28    27    22   ar
    29    18    21    1
    30    14    16    1
    31    14    17    1
@<TRIPOS>MOLECULE
*****
 29 31 0 0 0
SMALL
GASTEIGER

@<TRIPOS>ATOM
      1 C         142.0295  140.7643  166.6044 C.ar    1  UNL1        0.0303
      2 C         141.6048  141.5015  165.3691 C.ar    1  UNL1        0.0147
      3 C         142.0814  141.0449  164.0221 C.ar    1  UNL1        0.0505
      4 C         142.9826  139.8510  163.9105 C.ar    1  UNL1        0.0170
      5 C         143.4073  139.1138  165.1458 C.ar    1  UNL1        0.0307
      6 C         142.9307  139.5704  166.4928 C.ar    1  UNL1        0.1383
      7 F         143.3554  138.8332  167.7282 F       1  UNL1       -0.2044
      8 C         142.7948  142.0517  167.8191 C.3     1  UNL1        0.0336
      9 C         141.5529  141.2209  167.9515 C.3     1  UNL1        0.1262
     10 C         140.4765  140.2316  167.6160 C.2     1  UNL1        0.0068
     11 C         139.3549  139.9874  168.5815 C.2     1  UNL1        0.0357
     12 S         139.3096  140.7325  169.8826 S.3     1  UNL1       -0.0536
     13 C         140.3860  141.7218  170.2181 C.2     1  UNL1        0.1526
     14 N         140.3408  142.4670  171.5192 N.pl3   1  UNL1       -0.3378
     15 N         141.5077  141.9661  169.2525 N.2     1  UNL1       -0.2464
     16 H         139.6046  142.3067  172.1529 H       1  UNL1        0.1442
     17 H         141.0473  143.1163  171.7393 H       1  UNL1        0.1442
     18 N         141.6567  141.7821  162.7867 N.am    1  UNL1       -0.2791
     19 C         142.3799  143.0289  162.3715 C.2     1  UNL1        0.2672
     20 O         143.5279  143.5385  163.1917 O.2     1  UNL1       -0.2682
     21 H         140.9033  141.4477  162.2484 H       1  UNL1        0.1552
     22 C         141.9553  143.7661  161.1361 C.ar    1  UNL1        0.1348
     23 C         140.7488  144.6567  161.1716 C.ar    1  UNL1        0.0245
     24 C         140.3242  145.3940  159.9362 C.ar    1  UNL1        0.0135
     25 C         141.1061  145.2406  158.6653 C.ar    1  UNL1        0.0876
     26 C         142.3126  144.3500  158.6298 C.ar    1  UNL1        0.1092
     27 N         142.7372  143.6128  159.8652 N.ar    1  UNL1       -0.2385
     28 C         140.6815  145.9778  157.4300 C.1     1  UNL1        0.1020
     29 N         140.2568  146.7151  156.1946 N.1     1  UNL1       -0.1908
@<TRIPOS>BOND
     1     9     8    1
     2     9     1    1
     3     1     2   ar
     4     2     3   ar
     5     3    18    1
     6    18    19   am
     7    19    20    2
     8    19    22    1
     9    22    23   ar
    10    23    24   ar
    11    24    25   ar
    12    25    28    1
    13    28    29    3
    14    25    26   ar
    15    26    27   ar
    16     3     4   ar
    17     4     5   ar
    18     5     6   ar
    19     6     7    1
    20     9    10    1
    21    10    11    2
    22    11    12    1
    23    12    13    1
    24    13    14    1
    25    13    15    2
    26    15     9    1
    27     6     1   ar
    28    27    22   ar
    29    18    21    1
    30    14    16    1
    31    14    17    1
@<TRIPOS>MOLECULE
*****
 29 31 0 0 0
SMALL
GASTEIGER

@<TRIPOS>ATOM
      1 C         141.2307  139.0991  160.4188 C.ar    1  UNL1        0.0303
      2 C         141.3832  139.4145  161.8773 C.ar    1  UNL1        0.0147
      3 C         140.2741  139.0919  162.8343 C.ar    1  UNL1        0.0505
      4 C         139.0126  138.4540  162.3328 C.ar    1  UNL1        0.0170
      5 C         138.8601  138.1386  160.8743 C.ar    1  UNL1        0.0307
      6 C         139.9691  138.4612  159.9173 C.ar    1  UNL1        0.1383
      7 F         139.8167  138.1458  158.4587 F       1  UNL1       -0.2044
      8 C         142.7328  138.0288  159.8559 C.3     1  UNL1        0.0336
      9 C         142.3398  139.4217  159.4617 C.3     1  UNL1        0.1262
     10 C         141.5616  140.7026  159.3999 C.2     1  UNL1        0.0068
     11 C         142.0290  141.8222  158.5179 C.2     1  UNL1        0.0357
     12 S         143.2745  141.6610  157.6978 S.3     1  UNL1       -0.0536
     13 C         144.0527  140.3802  157.7596 C.2     1  UNL1        0.1526
     14 N         145.2983  140.2190  156.9394 N.pl3   1  UNL1       -0.3378
     15 N         143.5853  139.2605  158.6415 N.2     1  UNL1       -0.2464
     16 H         145.6050  140.9539  156.3605 H       1  UNL1        0.1442
     17 H         145.8090  139.3783  156.9800 H       1  UNL1        0.1442
     18 N         140.4266  139.4073  164.2929 N.am    1  UNL1       -0.2791
     19 C         139.7548  140.6165  164.8729 C.2     1  UNL1        0.2672
     20 O         138.9306  141.5104  163.9944 O.2     1  UNL1       -0.2682
     21 H         140.9676  138.8206  164.8694 H       1  UNL1        0.1552
     22 C         139.9073  140.9319  166.3314 C.ar    1  UNL1        0.1348
     23 C         139.4888  139.9274  167.3637 C.ar    1  UNL1        0.0245
     24 C         139.6412  140.2428  168.8223 C.ar    1  UNL1        0.0135
     25 C         140.2121  141.5628  169.2485 C.ar    1  UNL1        0.0876
     26 C         140.6306  142.5674  168.2161 C.ar    1  UNL1        0.1092
     27 N         140.4782  142.2520  166.7576 N.ar    1  UNL1       -0.2385
     28 C         140.3646  141.8782  170.7069 C.1     1  UNL1        0.1020
     29 N         140.5170  142.1936  172.1655 N.1     1  UNL1       -0.1908
@<TRIPOS>BOND
     1     9     8    1
     2     9     1    1
     3     1     2   ar
     4     2     3   ar
     5     3    18    1
     6    18    19   am
     7    19    20    2
     8    19    22    1
     9    22    23   ar
    10    23    24   ar
    11    24    25   ar
    12    25    28    1
    13    28    29    3
    14    25    26   ar
    15    26    27   ar
    16     3     4   ar
    17     4     5   ar
    18     5     6   ar
    19     6     7    1
    20     9    10    1
    21    10    11    2
    22    11    12    1
    23    12    13    1
    24    13    14    1
    25    13    15    2
    26    15     9    1
    27     6     1   ar
    28    27    22   ar
    29    18    21    1
    30    14    16    1
    31    14    17    1
@<TRIPOS>MOLECULE
*****
 29 31 0 0 0
SMALL
GASTEIGER

@<TRIPOS>ATOM
      1 C         140.6018  141.5019  166.5198 C.ar    1  UNL1        0.0303
      2 C         140.5412  142.3055  165.2547 C.ar    1  UNL1        0.0147
      3 C         139.4909  142.0070  164.2262 C.ar    1  UNL1        0.0505
      4 C         138.5012  140.9049  164.4629 C.ar    1  UNL1        0.0170
      5 C         138.5619  140.1013  165.7280 C.ar    1  UNL1        0.0307
      6 C         139.6122  140.3998  166.7564 C.ar    1  UNL1        0.1383
      7 F         139.6729  139.5962  168.0216 F       1  UNL1       -0.2044
      8 C         142.4616  140.9951  166.5754 C.3     1  UNL1        0.0336
      9 C         141.6522  141.8004  167.5483 C.3     1  UNL1        0.1262
     10 C         140.4780  142.5020  168.1639 C.2     1  UNL1        0.0068
     11 C         140.6352  143.2223  169.4702 C.2     1  UNL1        0.0357
     12 S         141.9667  143.2411  170.1608 S.3     1  UNL1       -0.0536
     13 C         143.1409  142.5395  169.5451 C.2     1  UNL1        0.1526
     14 N         144.4723  142.5583  170.2358 N.pl3   1  UNL1       -0.3378
     15 N         142.9836  141.8192  168.2389 N.2     1  UNL1       -0.2464
     16 H         144.5755  143.0311  171.0931 H       1  UNL1        0.1442
     17 H         145.2430  142.0978  169.8317 H       1  UNL1        0.1442
     18 N         139.4302  142.8106  162.9611 N.am    1  UNL1       -0.2791
     19 C         140.3995  142.5347  161.8501 C.2     1  UNL1        0.2672
     20 O         141.4296  141.4552  162.0043 O.2     1  UNL1       -0.2682
     21 H         138.7541  143.5191  162.8599 H       1  UNL1        0.1552
     22 C         140.3389  143.3383  160.5850 C.ar    1  UNL1        0.1348
     23 C         141.0536  144.6541  160.4972 C.ar    1  UNL1        0.0245
     24 C         140.9929  145.4577  159.2320 C.ar    1  UNL1        0.0135
     25 C         140.2175  144.9454  158.0546 C.ar    1  UNL1        0.0876
     26 C         139.5028  143.6295  158.1424 C.ar    1  UNL1        0.1092
     27 N         139.5634  142.8260  159.4075 N.ar    1  UNL1       -0.2385
     28 C         140.1569  145.7489  156.7895 C.1     1  UNL1        0.1020
     29 N         140.0962  146.5525  155.5243 N.1     1  UNL1       -0.1908
@<TRIPOS>BOND
     1     9     8    1
     2     9     1    1
     3     1     2   ar
     4     2     3   ar
     5     3    18    1
     6    18    19   am
     7    19    20    2
     8    19    22    1
     9    22    23   ar
    10    23    24   ar
    11    24    25   ar
    12    25    28    1
    13    28    29    3
    14    25    26   ar
    15    26    27   ar
    16     3     4   ar
    17     4     5   ar
    18     5     6   ar
    19     6     7    1
    20     9    10    1
    21    10    11    2
    22    11    12    1
    23    12    13    1
    24    13    14    1
    25    13    15    2
    26    15     9    1
    27     6     1   ar
    28    27    22   ar
    29    18    21    1
    30    14    16    1
    31    14    17    1
@<TRIPOS>MOLECULE
*****
 29 31 0 0 0
SMALL
GASTEIGER

@<TRIPOS>ATOM
      1 C         142.0701  141.5106  166.7311 C.ar    1  UNL1        0.0303
      2 C         141.4143  141.1824  165.4226 C.ar    1  UNL1        0.0147
      3 C         141.9922  141.7070  164.1417 C.ar    1  UNL1        0.0505
      4 C         143.2260  142.5597  164.1693 C.ar    1  UNL1        0.0170
      5 C         143.8818  142.8879  165.4777 C.ar    1  UNL1        0.0307
      6 C         143.3039  142.3633  166.7587 C.ar    1  UNL1        0.1383
      7 F         143.9597  142.6914  168.0672 F       1  UNL1       -0.2044
      8 C         142.1591  139.7440  167.4993 C.3     1  UNL1        0.0336
      9 C         141.4922  140.9860  168.0121 C.3     1  UNL1        0.1262
     10 C         141.0260  142.4100  168.0799 C.2     1  UNL1        0.0068
     11 C         140.2135  142.8782  169.2507 C.2     1  UNL1        0.0357
     12 S         139.8673  141.9223  170.3536 S.3     1  UNL1       -0.0536
     13 C         140.3335  140.4982  170.2857 C.2     1  UNL1        0.1526
     14 N         139.9872  139.5423  171.3886 N.pl3   1  UNL1       -0.3378
     15 N         141.1459  140.0300  169.1150 N.2     1  UNL1       -0.2464
     16 H         139.4539  139.8496  172.1570 H       1  UNL1        0.1442
     17 H         140.2932  138.6076  171.3441 H       1  UNL1        0.1442
     18 N         141.3364  141.3789  162.8331 N.am    1  UNL1       -0.2791
     19 C         140.0641  142.0683  162.4381 C.2     1  UNL1        0.2672
     20 O         139.4476  143.0858  163.3518 O.2     1  UNL1       -0.2682
     21 H         141.7411  140.7110  162.2335 H       1  UNL1        0.1552
     22 C         139.4083  141.7402  161.1296 C.ar    1  UNL1        0.1348
     23 C         139.1332  142.8286  160.1349 C.ar    1  UNL1        0.0245
     24 C         138.4773  142.5005  158.8263 C.ar    1  UNL1        0.0135
     25 C         138.0967  141.0839  158.5126 C.ar    1  UNL1        0.0876
     26 C         138.3718  139.9955  159.5073 C.ar    1  UNL1        0.1092
     27 N         139.0276  140.3236  160.8158 N.ar    1  UNL1       -0.2385
     28 C         137.4408  140.7559  157.2041 C.1     1  UNL1        0.1020
     29 N         136.7850  140.4277  155.8955 N.1     1  UNL1       -0.1908
@<TRIPOS>BOND
     1     9     8    1
     2     9     1    1
     3     1     2   ar
     4     2     3   ar
     5     3    18    1
     6    18    19   am
     7    19    20    2
     8    19    22    1
     9    22    23   ar
    10    23    24   ar
    11    24    25   ar
    12    25    28    1
    13    28    29    3
    14    25    26   ar
    15    26    27   ar
    16     3     4   ar
    17     4     5   ar
    18     5     6   ar
    19     6     7    1
    20     9    10    1
    21    10    11    2
    22    11    12    1
    23    12    13    1
    24    13    14    1
    25    13    15    2
    26    15     9    1
    27     6     1   ar
    28    27    22   ar
    29    18    21    1
    30    14    16    1
    31    14    17    1
@<TRIPOS>MOLECULE
*****
 29 31 0 0 0
SMALL
GASTEIGER

@<TRIPOS>ATOM
      1 C         139.6415  139.2796  164.7512 C.ar    1  UNL1        0.0303
      2 C         139.9464  140.2650  163.6622 C.ar    1  UNL1        0.0147
      3 C         139.6431  139.9218  162.2339 C.ar    1  UNL1        0.0505
      4 C         139.0350  138.5933  161.8945 C.ar    1  UNL1        0.0170
      5 C         138.7301  137.6079  162.9835 C.ar    1  UNL1        0.0307
      6 C         139.0333  137.9511  164.4119 C.ar    1  UNL1        0.1383
      7 F         138.7284  136.9657  165.5010 F       1  UNL1       -0.2044
      8 C         138.4768  139.9294  166.1441 C.3     1  UNL1        0.0336
      9 C         139.9447  139.6227  166.1797 C.3     1  UNL1        0.1262
     10 C         141.3073  139.1969  165.7192 C.2     1  UNL1        0.0068
     11 C         142.4633  139.2208  166.6747 C.2     1  UNL1        0.0357
     12 S         142.2567  139.6704  168.0908 S.3     1  UNL1       -0.0536
     13 C         140.8941  140.0962  168.5513 C.2     1  UNL1        0.1526
     14 N         140.6875  140.5458  169.9674 N.pl3   1  UNL1       -0.3378
     15 N         139.7381  140.0724  167.5958 N.2     1  UNL1       -0.2464
     16 H         141.4462  140.5614  170.5945 H       1  UNL1        0.1442
     17 H         139.7932  140.8253  170.2696 H       1  UNL1        0.1442
     18 N         139.9480  140.9072  161.1447 N.am    1  UNL1       -0.2791
     19 C         138.9701  141.9989  160.8258 C.2     1  UNL1        0.2672
     20 O         137.6872  142.1052  161.5959 O.2     1  UNL1       -0.2682
     21 H         140.7900  140.8374  160.6393 H       1  UNL1        0.1552
     22 C         139.2749  142.9843  159.7367 C.ar    1  UNL1        0.1348
     23 C         138.9892  142.6337  158.3065 C.ar    1  UNL1        0.0245
     24 C         139.2941  143.6192  157.2175 C.ar    1  UNL1        0.0135
     25 C         139.8846  144.9551  157.5586 C.ar    1  UNL1        0.0876
     26 C         140.1703  145.3057  158.9888 C.ar    1  UNL1        0.1092
     27 N         139.8655  144.3203  160.0778 N.ar    1  UNL1       -0.2385
     28 C         140.1895  145.9405  156.4696 C.1     1  UNL1        0.1020
     29 N         140.4944  146.9260  155.3805 N.1     1  UNL1       -0.1908
@<TRIPOS>BOND
     1     9     8    1
     2     9     1    1
     3     1     2   ar
     4     2     3   ar
     5     3    18    1
     6    18    19   am
     7    19    20    2
     8    19    22    1
     9    22    23   ar
    10    23    24   ar
    11    24    25   ar
    12    25    28    1
    13    28    29    3
    14    25    26   ar
    15    26    27   ar
    16     3     4   ar
    17     4     5   ar
    18     5     6   ar
    19     6     7    1
    20     9    10    1
    21    10    11    2
    22    11    12    1
    23    12    13    1
    24    13    14    1
    25    13    15    2
    26    15     9    1
    27     6     1   ar
    28    27    22   ar
    29    18    21    1
    30    14    16    1
    31    14    17    1
@<TRIPOS>MOLECULE
*****
 29 31 0 0 0
SMALL
GASTEIGER

@<TRIPOS>ATOM
      1 C         140.3959  140.3493  167.4305 C.ar    1  UNL1        0.0303
      2 C         140.4404  140.3158  165.9316 C.ar    1  UNL1        0.0147
      3 C         139.3207  139.6800  165.1621 C.ar    1  UNL1        0.0505
      4 C         138.1566  139.0777  165.8915 C.ar    1  UNL1        0.0170
      5 C         138.1121  139.1112  167.3905 C.ar    1  UNL1        0.0307
      6 C         139.2318  139.7470  168.1600 C.ar    1  UNL1        0.1383
      7 F         139.1873  139.7805  169.6590 F       1  UNL1       -0.2044
      8 C         142.2537  139.8482  167.5577 C.3     1  UNL1        0.0336
      9 C         141.5156  140.9851  168.2001 C.3     1  UNL1        0.1262
     10 C         140.3886  141.9011  168.5752 C.2     1  UNL1        0.0068
     11 C         140.6376  143.0581  169.4968 C.2     1  UNL1        0.0357
     12 S         142.0136  143.2991  170.0433 S.3     1  UNL1       -0.0536
     13 C         143.1406  142.3830  169.6681 C.2     1  UNL1        0.1526
     14 N         144.5166  142.6240  170.2146 N.pl3   1  UNL1       -0.3378
     15 N         142.8916  141.2260  168.7465 N.2     1  UNL1       -0.2464
     16 H         144.6800  143.3834  170.8194 H       1  UNL1        0.1442
     17 H         145.2563  142.0227  169.9683 H       1  UNL1        0.1442
     18 N         139.3652  139.6465  163.6631 N.am    1  UNL1       -0.2791
     19 C         138.6565  140.7027  162.8680 C.2     1  UNL1        0.2672
     20 O         137.9033  141.7924  163.5719 O.2     1  UNL1       -0.2682
     21 H         139.8595  138.9313  163.2011 H       1  UNL1        0.1552
     22 C         138.7009  140.6692  161.3690 C.ar    1  UNL1        0.1348
     23 C         138.4179  141.9146  160.5823 C.ar    1  UNL1        0.0245
     24 C         138.4623  141.8811  159.0833 C.ar    1  UNL1        0.0135
     25 C         138.7897  140.6022  158.3711 C.ar    1  UNL1        0.0876
     26 C         139.0727  139.3568  159.1578 C.ar    1  UNL1        0.1092
     27 N         139.0283  139.3903  160.6567 N.ar    1  UNL1       -0.2385
     28 C         138.8341  140.5687  156.8721 C.1     1  UNL1        0.1020
     29 N         138.8785  140.5352  155.3731 N.1     1  UNL1       -0.1908
@<TRIPOS>BOND
     1     9     8    1
     2     9     1    1
     3     1     2   ar
     4     2     3   ar
     5     3    18    1
     6    18    19   am
     7    19    20    2
     8    19    22    1
     9    22    23   ar
    10    23    24   ar
    11    24    25   ar
    12    25    28    1
    13    28    29    3
    14    25    26   ar
    15    26    27   ar
    16     3     4   ar
    17     4     5   ar
    18     5     6   ar
    19     6     7    1
    20     9    10    1
    21    10    11    2
    22    11    12    1
    23    12    13    1
    24    13    14    1
    25    13    15    2
    26    15     9    1
    27     6     1   ar
    28    27    22   ar
    29    18    21    1
    30    14    16    1
    31    14    17    1
@<TRIPOS>MOLECULE
*****
 29 31 0 0 0
SMALL
GASTEIGER

@<TRIPOS>ATOM
      1 C         140.6162  141.5076  166.6874 C.ar    1  UNL1        0.0303
      2 C         141.1191  140.6903  165.5345 C.ar    1  UNL1        0.0147
      3 C         141.3543  141.3381  164.2022 C.ar    1  UNL1        0.0505
      4 C         141.0866  142.8031  164.0228 C.ar    1  UNL1        0.0170
      5 C         140.5838  143.6203  165.1757 C.ar    1  UNL1        0.0307
      6 C         140.3486  142.9725  166.5080 C.ar    1  UNL1        0.1383
      7 F         139.8457  143.7898  167.6610 F       1  UNL1       -0.2044
      8 C         139.2550  140.2558  167.2340 C.3     1  UNL1        0.0336
      9 C         140.3810  140.8598  168.0198 C.3     1  UNL1        0.1262
     10 C         141.5886  141.6887  168.3428 C.2     1  UNL1        0.0068
     11 C         142.1700  141.6602  169.7252 C.2     1  UNL1        0.0357
     12 S         141.5437  140.8026  170.7847 S.3     1  UNL1       -0.0536
     13 C         140.3361  139.9737  170.4617 C.2     1  UNL1        0.1526
     14 N         139.7097  139.1162  171.5211 N.pl3   1  UNL1       -0.3378
     15 N         139.7547  140.0022  169.0792 N.2     1  UNL1       -0.2464
     16 H         140.0913  139.0974  172.4285 H       1  UNL1        0.1442
     17 H         138.9171  138.5721  171.3091 H       1  UNL1        0.1442
     18 N         141.8572  140.5209  163.0492 N.am    1  UNL1       -0.2791
     19 C         140.9197  140.1192  161.9493 C.2     1  UNL1        0.2672
     20 O         139.4793  140.5346  162.0025 O.2     1  UNL1       -0.2682
     21 H         142.8025  140.2482  163.0143 H       1  UNL1        0.1552
     22 C         141.4225  139.3020  160.7964 C.ar    1  UNL1        0.1348
     23 C         142.4852  138.2668  161.0178 C.ar    1  UNL1        0.0245
     24 C         142.9880  137.4496  159.8647 C.ar    1  UNL1        0.0135
     25 C         142.4281  137.6676  158.4904 C.ar    1  UNL1        0.0876
     26 C         141.3654  138.7028  158.2690 C.ar    1  UNL1        0.1092
     27 N         140.8625  139.5200  159.4219 N.ar    1  UNL1       -0.2385
     28 C         142.9309  136.8504  157.3374 C.1     1  UNL1        0.1020
     29 N         143.4337  136.0332  156.1844 N.1     1  UNL1       -0.1908
@<TRIPOS>BOND
     1     9     8    1
     2     9     1    1
     3     1     2   ar
     4     2     3   ar
     5     3    18    1
     6    18    19   am
     7    19    20    2
     8    19    22    1
     9    22    23   ar
    10    23    24   ar
    11    24    25   ar
    12    25    28    1
    13    28    29    3
    14    25    26   ar
    15    26    27   ar
    16     3     4   ar
    17     4     5   ar
    18     5     6   ar
    19     6     7    1
    20     9    10    1
    21    10    11    2
    22    11    12    1
    23    12    13    1
    24    13    14    1
    25    13    15    2
    26    15     9    1
    27     6     1   ar
    28    27    22   ar
    29    18    21    1
    30    14    16    1
    31    14    17    1
@<TRIPOS>MOLECULE
*****
 29 31 0 0 0
SMALL
GASTEIGER

@<TRIPOS>ATOM
      1 C         141.1353  141.9542  166.5887 C.ar    1  UNL1        0.0303
      2 C         141.3997  141.3335  165.2491 C.ar    1  UNL1        0.0147
      3 C         140.7688  141.9115  164.0171 C.ar    1  UNL1        0.0505
      4 C         139.8735  143.1101  164.1247 C.ar    1  UNL1        0.0170
      5 C         139.6091  143.7308  165.4644 C.ar    1  UNL1        0.0307
      6 C         140.2400  143.1529  166.6964 C.ar    1  UNL1        0.1383
      7 F         139.9756  143.7736  168.0362 F       1  UNL1       -0.2044
      8 C         142.9491  142.0851  167.2304 C.3     1  UNL1        0.0336
      9 C         141.7663  141.3763  167.8208 C.3     1  UNL1        0.1262
     10 C         140.3644  140.8682  167.9833 C.2     1  UNL1        0.0068
     11 C         140.0041  140.0284  169.1728 C.2     1  UNL1        0.0357
     12 S         141.0459  139.6967  170.1998 S.3     1  UNL1       -0.0536
     13 C         142.4478  140.2047  170.0373 C.2     1  UNL1        0.1526
     14 N         143.4896  139.8730  171.0644 N.pl3   1  UNL1       -0.3378
     15 N         142.8080  141.0445  168.8478 N.2     1  UNL1       -0.2464
     16 H         143.2531  139.3218  171.8451 H       1  UNL1        0.1442
     17 H         144.4097  140.2064  170.9577 H       1  UNL1        0.1442
     18 N         141.0332  141.2908  162.6773 N.am    1  UNL1       -0.2791
     19 C         140.2316  140.1048  162.2288 C.2     1  UNL1        0.2672
     20 O         139.1657  139.5396  163.1202 O.2     1  UNL1       -0.2682
     21 H         141.7328  141.6617  162.0923 H       1  UNL1        0.1552
     22 C         140.4960  139.4841  160.8892 C.ar    1  UNL1        0.1348
     23 C         141.8787  139.0219  160.5364 C.ar    1  UNL1        0.0245
     24 C         142.1430  138.4012  159.1966 C.ar    1  UNL1        0.0135
     25 C         141.0247  138.2427  158.2097 C.ar    1  UNL1        0.0876
     26 C         139.6419  138.7049  158.5625 C.ar    1  UNL1        0.1092
     27 N         139.3776  139.3256  159.9022 N.ar    1  UNL1       -0.2385
     28 C         141.2890  137.6220  156.8700 C.1     1  UNL1        0.1020
     29 N         141.5534  137.0012  155.5303 N.1     1  UNL1       -0.1908
@<TRIPOS>BOND
     1     9     8    1
     2     9     1    1
     3     1     2   ar
     4     2     3   ar
     5     3    18    1
     6    18    19   am
     7    19    20    2
     8    19    22    1
     9    22    23   ar
    10    23    24   ar
    11    24    25   ar
    12    25    28    1
    13    28    29    3
    14    25    26   ar
    15    26    27   ar
    16     3     4   ar
    17     4     5   ar
    18     5     6   ar
    19     6     7    1
    20     9    10    1
    21    10    11    2
    22    11    12    1
    23    12    13    1
    24    13    14    1
    25    13    15    2
    26    15     9    1
    27     6     1   ar
    28    27    22   ar
    29    18    21    1
    30    14    16    1
    31    14    17    1
