@<TRIPOS>MOLECULE
*****
 30 34 0 0 0
SMALL
GASTEIGER

@<TRIPOS>ATOM
      1 C         137.1923  141.0261  156.6637 C.3     1  UNL1        0.0181
      2 C         137.7873  141.0192  158.0408 C.3     1  UNL1        0.0036
      3 C         138.4733  141.3033  159.3441 C.3     1  UNL1        0.0227
      4 C         139.0332  142.6934  159.2800 C.3     1  UNL1        0.0870
      5 C         138.6933  143.2685  157.9370 C.3     1  UNL1        0.0227
      6 C         137.9233  142.2338  157.1711 C.3     1  UNL1        0.0036
      7 N         139.7986  143.3866  160.3679 N.ar    1  UNL1       -0.3109
      8 C         141.2197  143.8593  160.2825 C.ar    1  UNL1        0.1785
      9 N         141.5767  144.4937  161.5940 N.ar    1  UNL1       -0.2239
     10 C         140.3763  144.4133  162.4899 C.ar    1  UNL1        0.1010
     11 C         140.1419  144.8746  163.8978 C.ar    1  UNL1        0.0502
     12 C         138.8087  144.6517  164.5478 C.ar    1  UNL1        0.1417
     13 F         138.5742  145.1131  165.9558 F       1  UNL1       -0.2041
     14 C         137.7098  143.9675  163.7901 C.ar    1  UNL1        0.0312
     15 C         137.9441  143.5062  162.3822 C.ar    1  UNL1        0.0211
     16 C         139.2774  143.7290  161.7321 C.ar    1  UNL1        0.0790
     17 C         136.4269  140.3329  155.5759 C.3     1  UNL1        0.0718
     18 N         134.9752  140.6452  155.3643 N.am    1  UNL1       -0.3025
     19 C         133.9625  140.2369  156.3928 C.2     1  UNL1        0.2458
     20 O         134.4016  139.5164  157.6330 O.2     1  UNL1       -0.2701
     21 H         134.6869  141.1181  154.5503 H       1  UNL1        0.1497
     22 C         132.5106  140.5491  156.1811 C.ar    1  UNL1        0.0534
     23 C         131.4610  139.7709  156.9176 C.ar    1  UNL1        0.0054
     24 C         130.0092  140.0831  156.7059 C.ar    1  UNL1        0.0115
     25 C         129.6071  141.1737  155.7578 C.ar    1  UNL1        0.0577
     26 CL        128.1553  141.4859  155.5461 Cl      1  UNL1       -0.0822
     27 C         130.6568  141.9520  155.0213 C.ar    1  UNL1        0.0115
     28 C         132.1086  141.6397  155.2329 C.ar    1  UNL1        0.0054
     29 C         136.3675  138.1176  154.2199 C.3     1  UNL1        0.0017
     30 C         137.1133  139.3273  154.6996 C.3     1  UNL1        0.0196
@<TRIPOS>BOND
     1    29    30    1
     2    30    17    1
     3    17    18    1
     4    18    19   am
     5    19    20    2
     6    19    22    1
     7    22    23   ar
     8    23    24   ar
     9    24    25   ar
    10    25    26    1
    11    25    27   ar
    12    27    28   ar
    13     1    17    1
    14     1     2    1
    15     2     3    1
    16     3     4    1
    17     4     7    1
    18     7     8   ar
    19     8     9   ar
    20     9    10   ar
    21    10    11   ar
    22    11    12   ar
    23    12    13    1
    24    12    14   ar
    25    14    15   ar
    26    15    16   ar
    27     4     5    1
    28     6     5    1
    29    28    22   ar
    30     6     1    1
    31     6     2    1
    32    16     7   ar
    33    16    10   ar
    34    18    21    1
@<TRIPOS>MOLECULE
*****
 30 34 0 0 0
SMALL
GASTEIGER

@<TRIPOS>ATOM
      1 C         142.2235  137.4846  157.4651 C.3     1  UNL1        0.0181
      2 C         141.6402  136.6280  156.3805 C.3     1  UNL1        0.0036
      3 C         141.3265  135.6129  155.3216 C.3     1  UNL1        0.0227
      4 C         142.4931  134.6760  155.2174 C.3     1  UNL1        0.0870
      5 C         143.5280  135.1119  156.2118 C.3     1  UNL1        0.0227
      6 C         143.0009  136.3183  156.9307 C.3     1  UNL1        0.0036
      7 N         142.6053  133.5081  154.2827 N.ar    1  UNL1       -0.3109
      8 C         141.9508  133.3887  152.9384 C.ar    1  UNL1        0.1785
      9 N         142.3327  132.0614  152.3532 N.ar    1  UNL1       -0.2239
     10 C         143.2232  131.3605  153.3360 C.ar    1  UNL1        0.1010
     11 C         143.9024  130.0236  153.2990 C.ar    1  UNL1        0.0502
     12 C         144.7501  129.5809  154.4546 C.ar    1  UNL1        0.1417
     13 F         145.4293  128.2440  154.4176 F       1  UNL1       -0.2041
     14 C         144.9186  130.4750  155.6471 C.ar    1  UNL1        0.0312
     15 C         144.2393  131.8119  155.6841 C.ar    1  UNL1        0.0211
     16 C         143.3917  132.2546  154.5285 C.ar    1  UNL1        0.0790
     17 C         142.1113  138.6524  158.3997 C.3     1  UNL1        0.0718
     18 N         141.2662  138.5464  159.6344 N.am    1  UNL1       -0.3025
     19 C         141.8465  137.9742  160.8936 C.2     1  UNL1        0.2458
     20 O         143.2720  137.5078  160.9182 O.2     1  UNL1       -0.2701
     21 H         140.3306  138.8525  159.6183 H       1  UNL1        0.1497
     22 C         141.0013  137.8682  162.1284 C.ar    1  UNL1        0.0534
     23 C         141.6480  137.6428  163.4628 C.ar    1  UNL1        0.0054
     24 C         140.8029  137.5368  164.6975 C.ar    1  UNL1        0.0115
     25 C         139.3110  137.6564  164.5977 C.ar    1  UNL1        0.0577
     26 CL        138.4659  137.5504  165.8324 Cl      1  UNL1       -0.0822
     27 C         138.6642  137.8818  163.2632 C.ar    1  UNL1        0.0115
     28 C         139.5094  137.9878  162.0285 C.ar    1  UNL1        0.0054
     29 C         143.7440  140.0098  156.9024 C.3     1  UNL1        0.0017
     30 C         142.8443  139.9263  158.0996 C.3     1  UNL1        0.0196
@<TRIPOS>BOND
     1    29    30    1
     2    30    17    1
     3    17    18    1
     4    18    19   am
     5    19    20    2
     6    19    22    1
     7    22    23   ar
     8    23    24   ar
     9    24    25   ar
    10    25    26    1
    11    25    27   ar
    12    27    28   ar
    13     1    17    1
    14     1     2    1
    15     2     3    1
    16     3     4    1
    17     4     7    1
    18     7     8   ar
    19     8     9   ar
    20     9    10   ar
    21    10    11   ar
    22    11    12   ar
    23    12    13    1
    24    12    14   ar
    25    14    15   ar
    26    15    16   ar
    27     4     5    1
    28     6     5    1
    29    28    22   ar
    30     6     1    1
    31     6     2    1
    32    16     7   ar
    33    16    10   ar
    34    18    21    1
@<TRIPOS>MOLECULE
*****
 30 34 0 0 0
SMALL
GASTEIGER

@<TRIPOS>ATOM
      1 C         142.2537  137.9168  158.1922 C.3     1  UNL1        0.0181
      2 C         141.0123  138.5263  158.7733 C.3     1  UNL1        0.0036
      3 C         139.9486  139.1729  159.6103 C.3     1  UNL1        0.0227
      4 C         140.5385  139.4779  160.9552 C.3     1  UNL1        0.0870
      5 C         141.9669  139.0199  160.9496 C.3     1  UNL1        0.0227
      6 C         142.2597  138.4318  159.6011 C.3     1  UNL1        0.0036
      7 N         139.8253  140.1271  162.1041 N.ar    1  UNL1       -0.3109
      8 C         139.4527  141.5765  162.2050 C.ar    1  UNL1        0.1785
      9 N         138.7567  141.7859  163.5171 N.ar    1  UNL1       -0.2239
     10 C         138.6991  140.4659  164.2272 C.ar    1  UNL1        0.1010
     11 C         138.1306  140.0650  165.5561 C.ar    1  UNL1        0.0502
     12 C         138.2226  138.6388  166.0117 C.ar    1  UNL1        0.1417
     13 F         137.6540  138.2379  167.3407 F       1  UNL1       -0.2041
     14 C         138.8830  137.6136  165.1384 C.ar    1  UNL1        0.0312
     15 C         139.4516  138.0145  163.8095 C.ar    1  UNL1        0.0211
     16 C         139.3596  139.4406  163.3539 C.ar    1  UNL1        0.0790
     17 C         142.9669  137.2678  157.0434 C.3     1  UNL1        0.0718
     18 N         143.4481  135.8521  157.1627 N.am    1  UNL1       -0.3025
     19 C         142.6648  134.7382  156.5337 C.2     1  UNL1        0.2458
     20 O         141.4004  135.0399  155.7853 O.2     1  UNL1       -0.2701
     21 H         144.2780  135.6540  157.6539 H       1  UNL1        0.1497
     22 C         143.1461  133.3224  156.6530 C.ar    1  UNL1        0.0534
     23 C         144.3931  133.0170  157.4286 C.ar    1  UNL1        0.0054
     24 C         144.8743  131.6013  157.5479 C.ar    1  UNL1        0.0115
     25 C         144.1084  130.4910  156.8917 C.ar    1  UNL1        0.0577
     26 CL        144.5897  129.0753  157.0110 Cl      1  UNL1       -0.0822
     27 C         142.8613  130.7964  156.1161 C.ar    1  UNL1        0.0115
     28 C         142.3801  132.2121  155.9967 C.ar    1  UNL1        0.0054
     29 C         144.5748  138.1038  155.1817 C.3     1  UNL1        0.0017
     30 C         143.1990  138.0343  155.7750 C.3     1  UNL1        0.0196
@<TRIPOS>BOND
     1    29    30    1
     2    30    17    1
     3    17    18    1
     4    18    19   am
     5    19    20    2
     6    19    22    1
     7    22    23   ar
     8    23    24   ar
     9    24    25   ar
    10    25    26    1
    11    25    27   ar
    12    27    28   ar
    13     1    17    1
    14     1     2    1
    15     2     3    1
    16     3     4    1
    17     4     7    1
    18     7     8   ar
    19     8     9   ar
    20     9    10   ar
    21    10    11   ar
    22    11    12   ar
    23    12    13    1
    24    12    14   ar
    25    14    15   ar
    26    15    16   ar
    27     4     5    1
    28     6     5    1
    29    28    22   ar
    30     6     1    1
    31     6     2    1
    32    16     7   ar
    33    16    10   ar
    34    18    21    1
@<TRIPOS>MOLECULE
*****
 30 34 0 0 0
SMALL
GASTEIGER

@<TRIPOS>ATOM
      1 C         143.0000  139.9924  161.5035 C.3     1  UNL1        0.0181
      2 C         141.9189  139.1923  160.8392 C.3     1  UNL1        0.0036
      3 C         141.0227  138.4137  159.9223 C.3     1  UNL1        0.0227
      4 C         141.6803  138.3492  158.5757 C.3     1  UNL1        0.0870
      5 C         142.9830  139.0879  158.6603 C.3     1  UNL1        0.0227
      6 C         143.1305  139.6090  160.0591 C.3     1  UNL1        0.0036
      7 N         141.1316  137.6660  157.3583 N.ar    1  UNL1       -0.3109
      8 C         139.8339  137.9857  156.6774 C.ar    1  UNL1        0.1785
      9 N         139.6846  137.0603  155.5064 N.ar    1  UNL1       -0.2239
     10 C         140.8900  136.1687  155.4635 C.ar    1  UNL1        0.1010
     11 C         141.2889  135.0644  154.5301 C.ar    1  UNL1        0.0502
     12 C         142.5821  134.3343  154.7413 C.ar    1  UNL1        0.1417
     13 F         142.9810  133.2299  153.8079 F       1  UNL1       -0.2041
     14 C         143.4764  134.7086  155.8859 C.ar    1  UNL1        0.0312
     15 C         143.0776  135.8129  156.8193 C.ar    1  UNL1        0.0211
     16 C         141.7844  136.5430  156.6081 C.ar    1  UNL1        0.0790
     17 C         143.5487  140.6756  162.7208 C.3     1  UNL1        0.0718
     18 N         142.7017  140.8095  163.9515 N.am    1  UNL1       -0.3025
     19 C         142.7664  139.7628  165.0240 C.2     1  UNL1        0.2458
     20 O         143.6780  138.5821  164.8658 O.2     1  UNL1       -0.2701
     21 H         142.1034  141.5844  164.0554 H       1  UNL1        0.1497
     22 C         141.9194  139.8967  166.2548 C.ar    1  UNL1        0.0534
     23 C         142.5590  139.8754  167.6114 C.ar    1  UNL1        0.0054
     24 C         141.7121  140.0093  168.8421 C.ar    1  UNL1        0.0115
     25 C         140.2254  140.1645  168.7162 C.ar    1  UNL1        0.0577
     26 CL        139.3785  140.2984  169.9470 Cl      1  UNL1       -0.0822
     27 C         139.5858  140.1858  167.3596 C.ar    1  UNL1        0.0115
     28 C         140.4327  140.0519  166.1289 C.ar    1  UNL1        0.0054
     29 C         145.5658  141.7249  163.9779 C.3     1  UNL1        0.0017
     30 C         144.9444  141.2250  162.7075 C.3     1  UNL1        0.0196
@<TRIPOS>BOND
     1    29    30    1
     2    30    17    1
     3    17    18    1
     4    18    19   am
     5    19    20    2
     6    19    22    1
     7    22    23   ar
     8    23    24   ar
     9    24    25   ar
    10    25    26    1
    11    25    27   ar
    12    27    28   ar
    13     1    17    1
    14     1     2    1
    15     2     3    1
    16     3     4    1
    17     4     7    1
    18     7     8   ar
    19     8     9   ar
    20     9    10   ar
    21    10    11   ar
    22    11    12   ar
    23    12    13    1
    24    12    14   ar
    25    14    15   ar
    26    15    16   ar
    27     4     5    1
    28     6     5    1
    29    28    22   ar
    30     6     1    1
    31     6     2    1
    32    16     7   ar
    33    16    10   ar
    34    18    21    1
@<TRIPOS>MOLECULE
*****
 30 34 0 0 0
SMALL
GASTEIGER

@<TRIPOS>ATOM
      1 C         142.7523  137.6031  157.1722 C.3     1  UNL1        0.0181
      2 C         141.4179  138.0439  157.6969 C.3     1  UNL1        0.0036
      3 C         140.2279  138.4780  158.5002 C.3     1  UNL1        0.0227
      4 C         140.6383  138.5379  159.9417 C.3     1  UNL1        0.0870
      5 C         142.0821  138.1409  160.0294 C.3     1  UNL1        0.0227
      6 C         142.5640  137.8356  158.6421 C.3     1  UNL1        0.0036
      7 N         139.7593  138.9266  161.0933 N.ar    1  UNL1       -0.3109
      8 C         139.2556  138.0084  162.1672 C.ar    1  UNL1        0.1785
      9 N         138.4147  138.8162  163.1108 N.ar    1  UNL1       -0.2239
     10 C         138.3987  140.2336  162.6202 C.ar    1  UNL1        0.1010
     11 C         137.7349  141.4709  163.1477 C.ar    1  UNL1        0.0502
     12 C         137.9020  142.7764  162.4284 C.ar    1  UNL1        0.1417
     13 F         137.2381  144.0138  162.9559 F       1  UNL1       -0.2041
     14 C         138.7330  142.8447  161.1815 C.ar    1  UNL1        0.0312
     15 C         139.3969  141.6074  160.6540 C.ar    1  UNL1        0.0211
     16 C         139.2298  140.3019  161.3733 C.ar    1  UNL1        0.0790
     17 C         143.6312  137.2144  156.0206 C.3     1  UNL1        0.0718
     18 N         144.1059  135.7980  155.8840 N.am    1  UNL1       -0.3025
     19 C         143.1237  134.7029  155.5905 C.2     1  UNL1        0.2458
     20 O         141.6670  135.0241  155.4335 O.2     1  UNL1       -0.2701
     21 H         145.0620  135.5872  155.9871 H       1  UNL1        0.1497
     22 C         143.5984  133.2865  155.4539 C.ar    1  UNL1        0.0534
     23 C         143.1147  132.4400  154.3140 C.ar    1  UNL1        0.0054
     24 C         143.5894  131.0237  154.1774 C.ar    1  UNL1        0.0115
     25 C         144.5477  130.4538  155.1808 C.ar    1  UNL1        0.0577
     26 CL        145.0224  129.0375  155.0442 Cl      1  UNL1       -0.0822
     27 C         145.0315  131.3003  156.3208 C.ar    1  UNL1        0.0115
     28 C         144.5568  132.7166  156.4573 C.ar    1  UNL1        0.0054
     29 C         144.7390  139.4924  155.4432 C.3     1  UNL1        0.0017
     30 C         144.0357  138.2420  155.0054 C.3     1  UNL1        0.0196
@<TRIPOS>BOND
     1    29    30    1
     2    30    17    1
     3    17    18    1
     4    18    19   am
     5    19    20    2
     6    19    22    1
     7    22    23   ar
     8    23    24   ar
     9    24    25   ar
    10    25    26    1
    11    25    27   ar
    12    27    28   ar
    13     1    17    1
    14     1     2    1
    15     2     3    1
    16     3     4    1
    17     4     7    1
    18     7     8   ar
    19     8     9   ar
    20     9    10   ar
    21    10    11   ar
    22    11    12   ar
    23    12    13    1
    24    12    14   ar
    25    14    15   ar
    26    15    16   ar
    27     4     5    1
    28     6     5    1
    29    28    22   ar
    30     6     1    1
    31     6     2    1
    32    16     7   ar
    33    16    10   ar
    34    18    21    1
@<TRIPOS>MOLECULE
*****
 30 34 0 0 0
SMALL
GASTEIGER

@<TRIPOS>ATOM
      1 C         139.9923  138.1347  157.2201 C.3     1  UNL1        0.0181
      2 C         140.0391  138.1833  158.7186 C.3     1  UNL1        0.0036
      3 C         139.8950  138.4784  160.1822 C.3     1  UNL1        0.0227
      4 C         138.9917  139.6668  160.3288 C.3     1  UNL1        0.0870
      5 C         138.5774  140.1064  158.9558 C.3     1  UNL1        0.0227
      6 C         139.2248  139.1895  157.9606 C.3     1  UNL1        0.0036
      7 N         138.5756  140.3040  161.6215 N.ar    1  UNL1       -0.3109
      8 C         138.0888  141.7123  161.7937 C.ar    1  UNL1        0.1785
      9 N         137.7856  141.9233  163.2475 N.ar    1  UNL1       -0.2239
     10 C         138.0850  140.6454  163.9738 C.ar    1  UNL1        0.1010
     11 C         137.9762  140.2639  165.4203 C.ar    1  UNL1        0.0502
     12 C         138.3556  138.8815  165.8619 C.ar    1  UNL1        0.1417
     13 F         138.2468  138.4999  167.3085 F       1  UNL1       -0.2041
     14 C         138.8439  137.8807  164.8569 C.ar    1  UNL1        0.0312
     15 C         138.9527  138.2622  163.4103 C.ar    1  UNL1        0.0211
     16 C         138.5733  139.6446  162.9688 C.ar    1  UNL1        0.0790
     17 C         140.4083  137.4976  155.9275 C.3     1  UNL1        0.0718
     18 N         141.0124  136.1246  155.9283 N.am    1  UNL1       -0.3025
     19 C         142.4441  135.9354  156.3337 C.2     1  UNL1        0.2458
     20 O         143.2718  137.1191  156.7384 O.2     1  UNL1       -0.2701
     21 H         140.4692  135.3477  155.6627 H       1  UNL1        0.1497
     22 C         143.0482  134.5623  156.3345 C.ar    1  UNL1        0.0534
     23 C         143.8035  134.0760  157.5357 C.ar    1  UNL1        0.0054
     24 C         144.4076  132.7030  157.5365 C.ar    1  UNL1        0.0115
     25 C         144.2562  131.8163  156.3361 C.ar    1  UNL1        0.0577
     26 CL        144.8603  130.4433  156.3369 Cl      1  UNL1       -0.0822
     27 C         143.5008  132.3027  155.1349 C.ar    1  UNL1        0.0115
     28 C         142.8968  133.6756  155.1341 C.ar    1  UNL1        0.0054
     29 C         138.9784  138.0167  153.8213 C.3     1  UNL1        0.0017
     30 C         140.2204  138.2335  154.6339 C.3     1  UNL1        0.0196
@<TRIPOS>BOND
     1    29    30    1
     2    30    17    1
     3    17    18    1
     4    18    19   am
     5    19    20    2
     6    19    22    1
     7    22    23   ar
     8    23    24   ar
     9    24    25   ar
    10    25    26    1
    11    25    27   ar
    12    27    28   ar
    13     1    17    1
    14     1     2    1
    15     2     3    1
    16     3     4    1
    17     4     7    1
    18     7     8   ar
    19     8     9   ar
    20     9    10   ar
    21    10    11   ar
    22    11    12   ar
    23    12    13    1
    24    12    14   ar
    25    14    15   ar
    26    15    16   ar
    27     4     5    1
    28     6     5    1
    29    28    22   ar
    30     6     1    1
    31     6     2    1
    32    16     7   ar
    33    16    10   ar
    34    18    21    1
@<TRIPOS>MOLECULE
*****
 30 34 0 0 0
SMALL
GASTEIGER

@<TRIPOS>ATOM
      1 C         140.8310  139.3322  158.6168 C.3     1  UNL1        0.0181
      2 C         140.4214  138.3259  157.5826 C.3     1  UNL1        0.0036
      3 C         140.3074  137.2185  156.5771 C.3     1  UNL1        0.0227
      4 C         141.6351  136.5252  156.4985 C.3     1  UNL1        0.0870
      5 C         142.5699  137.2040  157.4553 C.3     1  UNL1        0.0227
      6 C         141.8197  138.3168  158.1253 C.3     1  UNL1        0.0036
      7 N         141.9695  135.3580  155.6176 N.ar    1  UNL1       -0.3109
      8 C         141.5240  135.1687  154.1979 C.ar    1  UNL1        0.1785
      9 N         142.0874  133.8689  153.7048 N.ar    1  UNL1       -0.2239
     10 C         142.8810  133.2549  154.8198 C.ar    1  UNL1        0.1010
     11 C         143.6606  131.9767  154.9113 C.ar    1  UNL1        0.0502
     12 C         144.3673  131.6188  156.1850 C.ar    1  UNL1        0.1417
     13 F         145.1469  130.3405  156.2765 F       1  UNL1       -0.2041
     14 C         144.2945  132.5391  157.3672 C.ar    1  UNL1        0.0312
     15 C         143.5149  133.8174  157.2757 C.ar    1  UNL1        0.0211
     16 C         142.8082  134.1752  156.0020 C.ar    1  UNL1        0.0790
     17 C         140.4966  140.4993  159.4976 C.3     1  UNL1        0.0718
     18 N         140.2636  140.2895  160.9644 N.am    1  UNL1       -0.3025
     19 C         138.9918  139.6505  161.4379 C.2     1  UNL1        0.2458
     20 O         137.9530  139.2214  160.4446 O.2     1  UNL1       -0.2701
     21 H         140.9454  140.5712  161.6164 H       1  UNL1        0.1497
     22 C         138.7588  139.4407  162.9049 C.ar    1  UNL1        0.0534
     23 C         138.9740  138.0862  163.5122 C.ar    1  UNL1        0.0054
     24 C         138.7410  137.8764  164.9791 C.ar    1  UNL1        0.0115
     25 C         138.2928  139.0211  165.8386 C.ar    1  UNL1        0.0577
     26 CL        138.0598  138.8113  167.3054 Cl      1  UNL1       -0.0822
     27 C         138.0776  140.3757  165.2312 C.ar    1  UNL1        0.0115
     28 C         138.3106  140.5855  163.7644 C.ar    1  UNL1        0.0054
     29 C         139.2794  142.7883  159.3277 C.3     1  UNL1        0.0017
     30 C         140.3952  141.8765  158.9116 C.3     1  UNL1        0.0196
@<TRIPOS>BOND
     1    29    30    1
     2    30    17    1
     3    17    18    1
     4    18    19   am
     5    19    20    2
     6    19    22    1
     7    22    23   ar
     8    23    24   ar
     9    24    25   ar
    10    25    26    1
    11    25    27   ar
    12    27    28   ar
    13     1    17    1
    14     1     2    1
    15     2     3    1
    16     3     4    1
    17     4     7    1
    18     7     8   ar
    19     8     9   ar
    20     9    10   ar
    21    10    11   ar
    22    11    12   ar
    23    12    13    1
    24    12    14   ar
    25    14    15   ar
    26    15    16   ar
    27     4     5    1
    28     6     5    1
    29    28    22   ar
    30     6     1    1
    31     6     2    1
    32    16     7   ar
    33    16    10   ar
    34    18    21    1
@<TRIPOS>MOLECULE
*****
 30 34 0 0 0
SMALL
GASTEIGER

@<TRIPOS>ATOM
      1 C         140.2163  138.2792  157.9259 C.3     1  UNL1        0.0181
      2 C         140.6760  138.3329  159.3527 C.3     1  UNL1        0.0036
      3 C         140.9594  138.6458  160.7921 C.3     1  UNL1        0.0227
      4 C         140.2125  139.8962  161.1505 C.3     1  UNL1        0.0870
      5 C         139.4674  140.3562  159.9326 C.3     1  UNL1        0.0227
      6 C         139.7538  139.3901  158.8216 C.3     1  UNL1        0.0036
      7 N         140.2109  140.5686  162.4913 N.ar    1  UNL1       -0.3109
      8 C         140.7723  141.9254  162.7979 C.ar    1  UNL1        0.1785
      9 N         140.5560  142.1976  164.2571 N.ar    1  UNL1       -0.2239
     10 C         139.8608  141.0091  164.8523 C.ar    1  UNL1        0.1010
     11 C         139.3945  140.7135  166.2469 C.ar    1  UNL1        0.0502
     12 C         138.7148  139.4112  166.5503 C.ar    1  UNL1        0.1417
     13 F         138.2484  139.1156  167.9450 F       1  UNL1       -0.2041
     14 C         138.5016  138.4045  165.4590 C.ar    1  UNL1        0.0312
     15 C         138.9679  138.7000  164.0643 C.ar    1  UNL1        0.0211
     16 C         139.6475  140.0023  163.7610 C.ar    1  UNL1        0.0790
     17 C         140.2178  137.6068  156.5851 C.3     1  UNL1        0.0718
     18 N         140.8587  136.2605  156.4220 N.am    1  UNL1       -0.3025
     19 C         142.3457  136.1164  156.5563 C.2     1  UNL1        0.2458
     20 O         143.1919  137.3186  156.8539 O.2     1  UNL1       -0.2701
     21 H         140.3033  135.4714  156.2267 H       1  UNL1        0.1497
     22 C         142.9865  134.7699  156.3932 C.ar    1  UNL1        0.0534
     23 C         142.8563  134.0296  155.0952 C.ar    1  UNL1        0.0054
     24 C         143.4971  132.6833  154.9321 C.ar    1  UNL1        0.0115
     25 C         144.2682  132.0772  156.0670 C.ar    1  UNL1        0.0577
     26 CL        144.9090  130.7308  155.9038 Cl      1  UNL1       -0.0822
     27 C         144.3984  132.8175  157.3651 C.ar    1  UNL1        0.0115
     28 C         143.7576  134.1638  157.5282 C.ar    1  UNL1        0.0054
     29 C         138.3814  137.6626  154.7481 C.3     1  UNL1        0.0017
     30 C         139.5786  138.2808  155.4072 C.3     1  UNL1        0.0196
@<TRIPOS>BOND
     1    29    30    1
     2    30    17    1
     3    17    18    1
     4    18    19   am
     5    19    20    2
     6    19    22    1
     7    22    23   ar
     8    23    24   ar
     9    24    25   ar
    10    25    26    1
    11    25    27   ar
    12    27    28   ar
    13     1    17    1
    14     1     2    1
    15     2     3    1
    16     3     4    1
    17     4     7    1
    18     7     8   ar
    19     8     9   ar
    20     9    10   ar
    21    10    11   ar
    22    11    12   ar
    23    12    13    1
    24    12    14   ar
    25    14    15   ar
    26    15    16   ar
    27     4     5    1
    28     6     5    1
    29    28    22   ar
    30     6     1    1
    31     6     2    1
    32    16     7   ar
    33    16    10   ar
    34    18    21    1
@<TRIPOS>MOLECULE
*****
 30 34 0 0 0
SMALL
GASTEIGER

@<TRIPOS>ATOM
      1 C         141.6870  137.7381  157.5109 C.3     1  UNL1        0.0181
      2 C         142.5483  136.5798  157.1025 C.3     1  UNL1        0.0036
      3 C         143.1775  135.3631  156.4911 C.3     1  UNL1        0.0227
      4 C         142.2484  134.8415  155.4354 C.3     1  UNL1        0.0870
      5 C         141.0448  135.7358  155.3942 C.3     1  UNL1        0.0227
      6 C         141.2302  136.8101  156.4245 C.3     1  UNL1        0.0036
      7 N         142.4817  133.6370  154.5724 N.ar    1  UNL1       -0.3109
      8 C         141.8983  133.4017  153.2107 C.ar    1  UNL1        0.1785
      9 N         142.3955  132.0756  152.7163 N.ar    1  UNL1       -0.2239
     10 C         143.2862  131.4915  153.7724 C.ar    1  UNL1        0.1010
     11 C         144.0556  130.2055  153.8378 C.ar    1  UNL1        0.0502
     12 C         144.8784  129.8846  155.0502 C.ar    1  UNL1        0.1417
     13 F         145.6478  128.5986  155.1156 F       1  UNL1       -0.2041
     14 C         144.9317  130.8496  156.1973 C.ar    1  UNL1        0.0312
     15 C         144.1622  132.1356  156.1320 C.ar    1  UNL1        0.0211
     16 C         143.3395  132.4565  154.9196 C.ar    1  UNL1        0.0790
     17 C         141.4537  138.9425  158.3738 C.3     1  UNL1        0.0718
     18 N         141.5758  138.8320  159.8648 N.am    1  UNL1       -0.3025
     19 C         142.9229  138.9339  160.5166 C.2     1  UNL1        0.2458
     20 O         144.1480  139.1463  159.6775 O.2     1  UNL1       -0.2701
     21 H         140.7717  138.6926  160.4155 H       1  UNL1        0.1497
     22 C         143.0450  138.8233  162.0076 C.ar    1  UNL1        0.0534
     23 C         141.9778  138.1258  162.7978 C.ar    1  UNL1        0.0054
     24 C         142.0999  138.0152  164.2887 C.ar    1  UNL1        0.0115
     25 C         143.2892  138.6022  164.9894 C.ar    1  UNL1        0.0577
     26 CL        143.4112  138.4917  166.4803 Cl      1  UNL1       -0.0822
     27 C         144.3564  139.2998  164.1992 C.ar    1  UNL1        0.0115
     28 C         144.2343  139.4104  162.7083 C.ar    1  UNL1        0.0054
     29 C         141.6193  140.6031  156.3825 C.3     1  UNL1        0.0017
     30 C         141.0982  140.2577  157.7460 C.3     1  UNL1        0.0196
@<TRIPOS>BOND
     1    29    30    1
     2    30    17    1
     3    17    18    1
     4    18    19   am
     5    19    20    2
     6    19    22    1
     7    22    23   ar
     8    23    24   ar
     9    24    25   ar
    10    25    26    1
    11    25    27   ar
    12    27    28   ar
    13     1    17    1
    14     1     2    1
    15     2     3    1
    16     3     4    1
    17     4     7    1
    18     7     8   ar
    19     8     9   ar
    20     9    10   ar
    21    10    11   ar
    22    11    12   ar
    23    12    13    1
    24    12    14   ar
    25    14    15   ar
    26    15    16   ar
    27     4     5    1
    28     6     5    1
    29    28    22   ar
    30     6     1    1
    31     6     2    1
    32    16     7   ar
    33    16    10   ar
    34    18    21    1
