@<TRIPOS>MOLECULE
*****
 30 33 0 0 0
SMALL
GASTEIGER

@<TRIPOS>ATOM
      1 C         144.1636  141.0851  162.3279 C.3     1  UNL1        0.0219
      2 C         142.9486  141.9155  162.6184 C.3     1  UNL1        0.0820
      3 C         142.3369  142.7540  161.5355 C.3     1  UNL1        0.0671
      4 C         141.1220  143.5844  161.8259 C.ar    1  UNL1        0.0837
      5 C         140.5188  143.5763  163.1992 C.ar    1  UNL1        0.1159
      6 N         139.3294  144.4902  163.1885 N.ar    1  UNL1       -0.1314
      7 N         139.1975  145.0631  161.8086 N.ar    1  UNL1       -0.0576
      8 N         140.3054  144.5033  160.9664 N.ar    1  UNL1       -0.1813
      9 C         141.1305  142.7378  164.2822 C.3     1  UNL1        0.1426
     10 N         142.3455  141.9074  163.9916 N.am    1  UNL1       -0.2715
     11 C         142.9572  141.0688  165.0746 C.2     1  UNL1        0.2514
     12 O         144.1721  140.2384  164.7842 O.2     1  UNL1       -0.2698
     13 C         140.5532  144.8088  159.5189 C.ar    1  UNL1        0.2543
     14 N         139.5733  144.3543  158.4781 N.ar    1  UNL1       -0.2060
     15 C         139.8210  144.6598  157.0305 C.ar    1  UNL1        0.1332
     16 C         141.0486  145.4198  156.6238 C.ar    1  UNL1        0.1784
     17 F         141.2963  145.7253  155.1763 F       1  UNL1       -0.2009
     18 C         142.0285  145.8743  157.6647 C.ar    1  UNL1        0.1332
     19 N         141.7808  145.5688  159.1122 N.ar    1  UNL1       -0.2060
     20 C         142.3540  141.0607  166.4479 C.ar    1  UNL1        0.0809
     21 C         141.2151  140.1363  166.7614 C.ar    1  UNL1        0.0068
     22 C         140.6118  140.1282  168.1348 C.ar    1  UNL1        0.0002
     23 C         141.1475  141.0445  169.1946 C.ar    1  UNL1        0.0061
     24 C         142.2864  141.9689  168.8812 C.ar    1  UNL1        0.0989
     25 C         142.8896  141.9771  167.5078 C.ar    1  UNL1        0.1483
     26 F         144.0286  142.9015  167.1944 F       1  UNL1       -0.2041
     27 C         142.8222  142.8854  169.9410 C.3     1  UNL1        0.4207
     28 F         143.3579  143.8018  171.0008 F       1  UNL1       -0.1658
     29 F         141.5616  143.6958  169.8773 F       1  UNL1       -0.1658
     30 F         144.0827  142.0749  170.0046 F       1  UNL1       -0.1658
@<TRIPOS>BOND
     1     2     1    1
     2     2     3    1
     3     3     4    1
     4     4     5   ar
     5     5     6   ar
     6     6     7   ar
     7     7     8   ar
     8     8    13    1
     9    13    14   ar
    10    14    15   ar
    11    15    16   ar
    12    16    17    1
    13    16    18   ar
    14    18    19   ar
    15     5     9    1
    16     9    10    1
    17    10    11   am
    18    11    12    2
    19    11    20    1
    20    20    21   ar
    21    21    22   ar
    22    22    23   ar
    23    23    24   ar
    24    24    27    1
    25    27    28    1
    26    27    29    1
    27    27    30    1
    28    24    25   ar
    29    25    26    1
    30    10     2    1
    31    25    20   ar
    32     8     4   ar
    33    19    13   ar
@<TRIPOS>MOLECULE
*****
 30 33 0 0 0
SMALL
GASTEIGER

@<TRIPOS>ATOM
      1 C         142.7883  140.1548  162.6769 C.3     1  UNL1        0.0219
      2 C         141.9328  141.3520  162.9688 C.3     1  UNL1        0.0820
      3 C         141.5471  142.2863  161.8606 C.3     1  UNL1        0.0671
      4 C         140.6916  143.4833  162.1524 C.ar    1  UNL1        0.0837
      5 C         140.2218  143.7461  163.5525 C.ar    1  UNL1        0.1159
      6 N         139.3951  144.9976  163.5369 N.ar    1  UNL1       -0.1314
      7 N         139.3540  145.5084  162.1272 N.ar    1  UNL1       -0.0576
      8 N         140.1553  144.5725  161.2715 N.ar    1  UNL1       -0.1813
      9 C         140.6075  142.8118  164.6608 C.3     1  UNL1        0.1426
     10 N         141.4630  141.6147  164.3689 N.am    1  UNL1       -0.2715
     11 C         141.8488  140.6803  165.4772 C.2     1  UNL1        0.2514
     12 O         142.7042  139.4832  165.1854 O.2     1  UNL1       -0.2698
     13 C         140.3806  144.7029  159.7943 C.ar    1  UNL1        0.2543
     14 N         141.5277  145.5212  159.2799 N.ar    1  UNL1       -0.2060
     15 C         141.7530  145.6517  157.8027 C.ar    1  UNL1        0.1332
     16 C         140.8313  144.9639  156.8398 C.ar    1  UNL1        0.1784
     17 F         141.0566  145.0943  155.3626 F       1  UNL1       -0.2009
     18 C         139.6841  144.1455  157.3542 C.ar    1  UNL1        0.1332
     19 N         139.4588  144.0151  158.8313 N.ar    1  UNL1       -0.2060
     20 C         141.3790  140.9430  166.8773 C.ar    1  UNL1        0.0809
     21 C         140.1048  140.3233  167.3696 C.ar    1  UNL1        0.0068
     22 C         139.6350  140.5860  168.7697 C.ar    1  UNL1        0.0002
     23 C         140.4394  141.4685  169.6775 C.ar    1  UNL1        0.0061
     24 C         141.7136  142.0883  169.1852 C.ar    1  UNL1        0.0989
     25 C         142.1834  141.8255  167.7851 C.ar    1  UNL1        0.1483
     26 F         143.4576  142.4453  167.2928 F       1  UNL1       -0.2041
     27 C         142.5181  142.9708  170.0930 C.3     1  UNL1        0.4207
     28 F         143.3227  143.8533  171.0007 F       1  UNL1       -0.1658
     29 F         143.6082  141.9410  170.1279 F       1  UNL1       -0.1658
     30 F         141.4280  144.0006  170.0580 F       1  UNL1       -0.1658
@<TRIPOS>BOND
     1     2     1    1
     2     2     3    1
     3     3     4    1
     4     4     5   ar
     5     5     6   ar
     6     6     7   ar
     7     7     8   ar
     8     8    13    1
     9    13    14   ar
    10    14    15   ar
    11    15    16   ar
    12    16    17    1
    13    16    18   ar
    14    18    19   ar
    15     5     9    1
    16     9    10    1
    17    10    11   am
    18    11    12    2
    19    11    20    1
    20    20    21   ar
    21    21    22   ar
    22    22    23   ar
    23    23    24   ar
    24    24    27    1
    25    27    28    1
    26    27    29    1
    27    27    30    1
    28    24    25   ar
    29    25    26    1
    30    10     2    1
    31    25    20   ar
    32     8     4   ar
    33    19    13   ar
@<TRIPOS>MOLECULE
*****
 30 33 0 0 0
SMALL
GASTEIGER

@<TRIPOS>ATOM
      1 C         141.6514  139.4764  161.5742 C.3     1  UNL1        0.0219
      2 C         141.2985  140.8390  162.0928 C.3     1  UNL1        0.0820
      3 C         141.1695  141.9927  161.1429 C.3     1  UNL1        0.0671
      4 C         140.8167  143.3553  161.6615 C.ar    1  UNL1        0.0837
      5 C         140.5928  143.5641  163.1299 C.ar    1  UNL1        0.1159
      6 N         140.2591  145.0103  163.3469 N.ar    1  UNL1       -0.1314
      7 N         140.2767  145.6953  162.0126 N.ar    1  UNL1       -0.0576
      8 N         140.6213  144.6724  160.9709 N.ar    1  UNL1       -0.1813
      9 C         140.7218  142.4104  164.0798 C.3     1  UNL1        0.1426
     10 N         141.0747  141.0478  163.5612 N.am    1  UNL1       -0.2715
     11 C         141.2037  139.8940  164.5111 C.2     1  UNL1        0.2514
     12 O         141.5565  138.5314  163.9925 O.2     1  UNL1       -0.2698
     13 C         140.7482  144.9228  159.4974 C.ar    1  UNL1        0.2543
     14 N         139.6756  144.4503  158.5613 N.ar    1  UNL1       -0.2060
     15 C         139.8025  144.7006  157.0877 C.ar    1  UNL1        0.1332
     16 C         141.0019  145.4235  156.5504 C.ar    1  UNL1        0.1784
     17 F         141.1288  145.6739  155.0769 F       1  UNL1       -0.2009
     18 C         142.0745  145.8960  157.4866 C.ar    1  UNL1        0.1332
     19 N         141.9476  145.6457  158.9600 N.ar    1  UNL1       -0.2060
     20 C         140.9799  140.1028  165.9795 C.ar    1  UNL1        0.0809
     21 C         139.6456  139.7862  166.5873 C.ar    1  UNL1        0.0068
     22 C         139.4217  139.9950  168.0557 C.ar    1  UNL1        0.0002
     23 C         140.5322  140.5205  168.9164 C.ar    1  UNL1        0.0061
     24 C         141.8665  140.8372  168.3086 C.ar    1  UNL1        0.0989
     25 C         142.0903  140.6284  166.8402 C.ar    1  UNL1        0.1483
     26 F         143.4246  140.9450  166.2324 F       1  UNL1       -0.2041
     27 C         142.9770  141.3627  169.1692 C.3     1  UNL1        0.4207
     28 F         144.0876  141.8881  170.0298 F       1  UNL1       -0.1658
     29 F         143.1278  140.0104  169.8003 F       1  UNL1       -0.1658
     30 F         142.8262  142.7151  168.5380 F       1  UNL1       -0.1658
@<TRIPOS>BOND
     1     2     1    1
     2     2     3    1
     3     3     4    1
     4     4     5   ar
     5     5     6   ar
     6     6     7   ar
     7     7     8   ar
     8     8    13    1
     9    13    14   ar
    10    14    15   ar
    11    15    16   ar
    12    16    17    1
    13    16    18   ar
    14    18    19   ar
    15     5     9    1
    16     9    10    1
    17    10    11   am
    18    11    12    2
    19    11    20    1
    20    20    21   ar
    21    21    22   ar
    22    22    23   ar
    23    23    24   ar
    24    24    27    1
    25    27    28    1
    26    27    29    1
    27    27    30    1
    28    24    25   ar
    29    25    26    1
    30    10     2    1
    31    25    20   ar
    32     8     4   ar
    33    19    13   ar
@<TRIPOS>MOLECULE
*****
 30 33 0 0 0
SMALL
GASTEIGER

@<TRIPOS>ATOM
      1 C         139.4889  143.1483  160.8282 C.3     1  UNL1        0.0219
      2 C         140.4906  142.0828  161.1622 C.3     1  UNL1        0.0820
      3 C         141.5176  141.6747  160.1480 C.3     1  UNL1        0.0671
      4 C         142.5193  140.6092  160.4819 C.ar    1  UNL1        0.0837
      5 C         142.4939  139.9519  161.8300 C.ar    1  UNL1        0.1159
      6 N         143.6000  138.9396  161.8731 N.ar    1  UNL1       -0.1314
      7 N         144.3090  138.9714  160.5516 N.ar    1  UNL1       -0.0576
      8 N         143.6411  140.0032  159.6918 N.ar    1  UNL1       -0.1813
      9 C         141.4668  140.3600  162.8442 C.3     1  UNL1        0.1426
     10 N         140.4652  141.4256  162.5102 N.am    1  UNL1       -0.2715
     11 C         139.4380  141.8337  163.5244 C.2     1  UNL1        0.2514
     12 O         138.4364  142.8992  163.1906 O.2     1  UNL1       -0.2698
     13 C         144.0272  140.3654  158.2884 C.ar    1  UNL1        0.2543
     14 N         144.5727  141.7303  157.9891 N.ar    1  UNL1       -0.2060
     15 C         144.9589  142.0925  156.5856 C.ar    1  UNL1        0.1332
     16 C         144.7996  141.0899  155.4815 C.ar    1  UNL1        0.1784
     17 F         145.1857  141.4521  154.0780 F       1  UNL1       -0.2009
     18 C         144.2541  139.7250  155.7808 C.ar    1  UNL1        0.1332
     19 N         143.8679  139.3627  157.1841 N.ar    1  UNL1       -0.2060
     20 C         139.4127  141.1764  164.8725 C.ar    1  UNL1        0.0809
     21 C         140.0820  141.8364  166.0415 C.ar    1  UNL1        0.0068
     22 C         140.0566  141.1790  167.3895 C.ar    1  UNL1        0.0002
     23 C         139.3619  139.8618  167.5687 C.ar    1  UNL1        0.0061
     24 C         138.6925  139.2018  166.3997 C.ar    1  UNL1        0.0989
     25 C         138.7179  139.8591  165.0517 C.ar    1  UNL1        0.1483
     26 F         138.0485  139.1992  163.8827 F       1  UNL1       -0.2041
     27 C         137.9977  137.8845  166.5788 C.3     1  UNL1        0.4207
     28 F         137.3030  136.5672  166.7577 F       1  UNL1       -0.1658
     29 F         138.9324  137.2569  165.5876 F       1  UNL1       -0.1658
     30 F         137.0630  138.5122  167.5699 F       1  UNL1       -0.1658
@<TRIPOS>BOND
     1     2     1    1
     2     2     3    1
     3     3     4    1
     4     4     5   ar
     5     5     6   ar
     6     6     7   ar
     7     7     8   ar
     8     8    13    1
     9    13    14   ar
    10    14    15   ar
    11    15    16   ar
    12    16    17    1
    13    16    18   ar
    14    18    19   ar
    15     5     9    1
    16     9    10    1
    17    10    11   am
    18    11    12    2
    19    11    20    1
    20    20    21   ar
    21    21    22   ar
    22    22    23   ar
    23    23    24   ar
    24    24    27    1
    25    27    28    1
    26    27    29    1
    27    27    30    1
    28    24    25   ar
    29    25    26    1
    30    10     2    1
    31    25    20   ar
    32     8     4   ar
    33    19    13   ar
@<TRIPOS>MOLECULE
*****
 30 33 0 0 0
SMALL
GASTEIGER

@<TRIPOS>ATOM
      1 C         140.5812  139.0913  163.1944 C.3     1  UNL1        0.0219
      2 C         141.4523  140.2836  163.4584 C.3     1  UNL1        0.0820
      3 C         142.0165  141.0689  162.3117 C.3     1  UNL1        0.0671
      4 C         142.8875  142.2612  162.5756 C.ar    1  UNL1        0.0837
      5 C         143.1944  142.6682  163.9864 C.ar    1  UNL1        0.1159
      6 N         144.0773  143.8799  163.9376 N.ar    1  UNL1       -0.1314
      7 N         144.3161  144.2216  162.4968 N.ar    1  UNL1       -0.0576
      8 N         143.5808  143.2212  161.6550 N.ar    1  UNL1       -0.1813
      9 C         142.6302  141.8830  165.1331 C.3     1  UNL1        0.1426
     10 N         141.7591  140.6906  164.8691 N.am    1  UNL1       -0.2715
     11 C         141.1949  139.9053  166.0159 C.2     1  UNL1        0.2514
     12 O         140.3238  138.7130  165.7519 O.2     1  UNL1       -0.2698
     13 C         143.5451  143.1870  160.1558 C.ar    1  UNL1        0.2543
     14 N         144.4657  142.2716  159.4044 N.ar    1  UNL1       -0.2060
     15 C         144.4300  142.2373  157.9052 C.ar    1  UNL1        0.1332
     16 C         143.4737  143.1183  157.1574 C.ar    1  UNL1        0.1784
     17 F         143.4380  143.0841  155.6583 F       1  UNL1       -0.2009
     18 C         142.5531  144.0337  157.9089 C.ar    1  UNL1        0.1332
     19 N         142.5887  144.0680  159.4080 N.ar    1  UNL1       -0.2060
     20 C         141.5018  140.3124  167.4266 C.ar    1  UNL1        0.0809
     21 C         142.5461  139.5738  168.2101 C.ar    1  UNL1        0.0068
     22 C         142.8530  139.9809  169.6208 C.ar    1  UNL1        0.0002
     23 C         142.1155  141.1265  170.2481 C.ar    1  UNL1        0.0061
     24 C         141.0711  141.8651  169.4647 C.ar    1  UNL1        0.0989
     25 C         140.7643  141.4581  168.0539 C.ar    1  UNL1        0.1483
     26 F         139.7199  142.1967  167.2705 F       1  UNL1       -0.2041
     27 C         140.3335  143.0109  170.0919 C.3     1  UNL1        0.4207
     28 F         139.5959  144.1565  170.7191 F       1  UNL1       -0.1658
     29 F         139.1468  142.1222  170.3194 F       1  UNL1       -0.1658
     30 F         141.5203  143.8995  169.8644 F       1  UNL1       -0.1658
@<TRIPOS>BOND
     1     2     1    1
     2     2     3    1
     3     3     4    1
     4     4     5   ar
     5     5     6   ar
     6     6     7   ar
     7     7     8   ar
     8     8    13    1
     9    13    14   ar
    10    14    15   ar
    11    15    16   ar
    12    16    17    1
    13    16    18   ar
    14    18    19   ar
    15     5     9    1
    16     9    10    1
    17    10    11   am
    18    11    12    2
    19    11    20    1
    20    20    21   ar
    21    21    22   ar
    22    22    23   ar
    23    23    24   ar
    24    24    27    1
    25    27    28    1
    26    27    29    1
    27    27    30    1
    28    24    25   ar
    29    25    26    1
    30    10     2    1
    31    25    20   ar
    32     8     4   ar
    33    19    13   ar
@<TRIPOS>MOLECULE
*****
 30 33 0 0 0
SMALL
GASTEIGER

@<TRIPOS>ATOM
      1 C         137.4608  141.5761  162.8077 C.3     1  UNL1        0.0219
      2 C         138.8794  142.0080  162.5810 C.3     1  UNL1        0.0820
      3 C         139.2557  142.7099  161.3099 C.3     1  UNL1        0.0671
      4 C         140.6741  143.1417  161.0832 C.ar    1  UNL1        0.0837
      5 C         141.7164  142.8717  162.1277 C.ar    1  UNL1        0.1159
      6 N         143.0239  143.4108  161.6280 N.ar    1  UNL1       -0.1314
      7 N         142.7898  144.0140  160.2748 N.ar    1  UNL1       -0.0576
      8 N         141.3376  143.8477  159.9380 N.ar    1  UNL1       -0.1813
      9 C         141.3401  142.1699  163.3988 C.3     1  UNL1        0.1426
     10 N         139.9215  141.7380  163.6255 N.am    1  UNL1       -0.2715
     11 C         139.5452  141.0361  164.8967 C.2     1  UNL1        0.2514
     12 O         138.1268  140.6042  165.1233 O.2     1  UNL1       -0.2698
     13 C         140.6666  144.3067  158.6775 C.ar    1  UNL1        0.2543
     14 N         140.6793  145.7604  158.3077 N.ar    1  UNL1       -0.2060
     15 C         140.0083  146.2195  157.0471 C.ar    1  UNL1        0.1332
     16 C         139.3248  145.2250  156.1563 C.ar    1  UNL1        0.1784
     17 F         138.6538  145.6841  154.8957 F       1  UNL1       -0.2009
     18 C         139.3121  143.7713  156.5261 C.ar    1  UNL1        0.1332
     19 N         139.9830  143.3122  157.7866 N.ar    1  UNL1       -0.2060
     20 C         140.5875  140.7661  165.9411 C.ar    1  UNL1        0.0809
     21 C         141.3624  139.4821  165.9130 C.ar    1  UNL1        0.0068
     22 C         142.4047  139.2122  166.9575 C.ar    1  UNL1        0.0002
     23 C         142.6719  140.2261  168.0300 C.ar    1  UNL1        0.0061
     24 C         141.8969  141.5101  168.0581 C.ar    1  UNL1        0.0989
     25 C         140.8547  141.7801  167.0137 C.ar    1  UNL1        0.1483
     26 F         140.0797  143.0641  167.0418 F       1  UNL1       -0.2041
     27 C         142.1641  142.5242  169.1307 C.3     1  UNL1        0.4207
     28 F         142.4312  143.5383  170.2032 F       1  UNL1       -0.1658
     29 F         140.7662  142.3482  169.6452 F       1  UNL1       -0.1658
     30 F         143.5620  142.7002  168.6161 F       1  UNL1       -0.1658
@<TRIPOS>BOND
     1     2     1    1
     2     2     3    1
     3     3     4    1
     4     4     5   ar
     5     5     6   ar
     6     6     7   ar
     7     7     8   ar
     8     8    13    1
     9    13    14   ar
    10    14    15   ar
    11    15    16   ar
    12    16    17    1
    13    16    18   ar
    14    18    19   ar
    15     5     9    1
    16     9    10    1
    17    10    11   am
    18    11    12    2
    19    11    20    1
    20    20    21   ar
    21    21    22   ar
    22    22    23   ar
    23    23    24   ar
    24    24    27    1
    25    27    28    1
    26    27    29    1
    27    27    30    1
    28    24    25   ar
    29    25    26    1
    30    10     2    1
    31    25    20   ar
    32     8     4   ar
    33    19    13   ar
@<TRIPOS>MOLECULE
*****
 30 33 0 0 0
SMALL
GASTEIGER

@<TRIPOS>ATOM
      1 C         138.9242  142.1026  161.2879 C.3     1  UNL1        0.0219
      2 C         139.9856  141.1372  161.7257 C.3     1  UNL1        0.0820
      3 C         140.8790  140.4925  160.7078 C.3     1  UNL1        0.0671
      4 C         141.9404  139.5272  161.1455 C.ar    1  UNL1        0.0837
      5 C         142.1082  139.2064  162.6012 C.ar    1  UNL1        0.1159
      6 N         143.2335  138.2232  162.7324 N.ar    1  UNL1       -0.1314
      7 N         143.7610  137.9364  161.3579 N.ar    1  UNL1       -0.0576
      8 N         142.9618  138.7422  160.3771 N.ar    1  UNL1       -0.1813
      9 C         141.2148  139.8510  163.6191 C.3     1  UNL1        0.1426
     10 N         140.1534  140.8164  163.1813 N.am    1  UNL1       -0.2715
     11 C         139.2599  141.4611  164.1993 C.2     1  UNL1        0.2514
     12 O         138.1986  142.4265  163.7616 O.2     1  UNL1       -0.2698
     13 C         143.1510  138.7600  158.8892 C.ar    1  UNL1        0.2543
     14 N         142.6271  137.6303  158.0530 N.ar    1  UNL1       -0.2060
     15 C         142.8162  137.6480  156.5651 C.ar    1  UNL1        0.1332
     16 C         143.5292  138.7954  155.9133 C.ar    1  UNL1        0.1784
     17 F         143.7183  138.8132  154.4254 F       1  UNL1       -0.2009
     18 C         144.0531  139.9252  156.7496 C.ar    1  UNL1        0.1332
     19 N         143.8640  139.9075  158.2374 N.ar    1  UNL1       -0.2060
     20 C         139.4278  141.1403  165.6549 C.ar    1  UNL1        0.0809
     21 C         138.8079  139.8995  166.2259 C.ar    1  UNL1        0.0068
     22 C         138.9758  139.5787  167.6815 C.ar    1  UNL1        0.0002
     23 C         139.7636  140.4988  168.5663 C.ar    1  UNL1        0.0061
     24 C         140.3835  141.7397  167.9953 C.ar    1  UNL1        0.0989
     25 C         140.2156  142.0604  166.5397 C.ar    1  UNL1        0.1483
     26 F         140.8355  143.3013  165.9688 F       1  UNL1       -0.2041
     27 C         141.1713  142.6599  168.8800 C.3     1  UNL1        0.4207
     28 F         141.9592  143.5800  169.7647 F       1  UNL1       -0.1658
     29 F         142.2909  141.6624  168.9203 F       1  UNL1       -0.1658
     30 F         140.0517  143.6573  168.8397 F       1  UNL1       -0.1658
@<TRIPOS>BOND
     1     2     1    1
     2     2     3    1
     3     3     4    1
     4     4     5   ar
     5     5     6   ar
     6     6     7   ar
     7     7     8   ar
     8     8    13    1
     9    13    14   ar
    10    14    15   ar
    11    15    16   ar
    12    16    17    1
    13    16    18   ar
    14    18    19   ar
    15     5     9    1
    16     9    10    1
    17    10    11   am
    18    11    12    2
    19    11    20    1
    20    20    21   ar
    21    21    22   ar
    22    22    23   ar
    23    23    24   ar
    24    24    27    1
    25    27    28    1
    26    27    29    1
    27    27    30    1
    28    24    25   ar
    29    25    26    1
    30    10     2    1
    31    25    20   ar
    32     8     4   ar
    33    19    13   ar
@<TRIPOS>MOLECULE
*****
 30 33 0 0 0
SMALL
GASTEIGER

@<TRIPOS>ATOM
      1 C         137.4017  141.6685  162.6493 C.3     1  UNL1        0.0219
      2 C         138.7704  142.2276  162.3957 C.3     1  UNL1        0.0820
      3 C         139.0719  142.9118  161.0954 C.3     1  UNL1        0.0671
      4 C         140.4405  143.4708  160.8417 C.ar    1  UNL1        0.0837
      5 C         141.5076  143.3456  161.8884 C.ar    1  UNL1        0.1159
      6 N         142.7545  143.9896  161.3587 N.ar    1  UNL1       -0.1314
      7 N         142.4579  144.5128  159.9845 N.ar    1  UNL1       -0.0576
      8 N         141.0278  144.1922  159.6650 N.ar    1  UNL1       -0.1813
      9 C         141.2061  142.6614  163.1888 C.3     1  UNL1        0.1426
     10 N         139.8374  142.1023  163.4423 N.am    1  UNL1       -0.2715
     11 C         139.5358  141.4181  164.7428 C.2     1  UNL1        0.2514
     12 O         138.1672  140.8590  164.9964 O.2     1  UNL1       -0.2698
     13 C         140.3110  144.5331  158.3923 C.ar    1  UNL1        0.2543
     14 N         139.5478  143.4734  157.6544 N.ar    1  UNL1       -0.2060
     15 C         138.8309  143.8143  156.3816 C.ar    1  UNL1        0.1332
     16 C         138.8772  145.2149  155.8468 C.ar    1  UNL1        0.1784
     17 F         138.1604  145.5558  154.5740 F       1  UNL1       -0.2009
     18 C         139.6405  146.2746  156.5847 C.ar    1  UNL1        0.1332
     19 N         140.3574  145.9338  157.8574 N.ar    1  UNL1       -0.2060
     20 C         140.6030  141.2928  165.7895 C.ar    1  UNL1        0.0809
     21 C         140.8276  142.4068  166.7685 C.ar    1  UNL1        0.0068
     22 C         141.8947  142.2816  167.8152 C.ar    1  UNL1        0.0002
     23 C         142.7372  141.0424  167.8829 C.ar    1  UNL1        0.0061
     24 C         142.5125  139.9284  166.9039 C.ar    1  UNL1        0.0989
     25 C         141.4454  140.0536  165.8571 C.ar    1  UNL1        0.1483
     26 F         141.2207  138.9396  164.8781 F       1  UNL1       -0.2041
     27 C         143.3550  138.6891  166.9714 C.3     1  UNL1        0.4207
     28 F         144.1973  137.4498  167.0391 F       1  UNL1       -0.1658
     29 F         142.9319  138.4793  168.3951 F       1  UNL1       -0.1658
     30 F         143.7780  138.8990  165.5478 F       1  UNL1       -0.1658
@<TRIPOS>BOND
     1     2     1    1
     2     2     3    1
     3     3     4    1
     4     4     5   ar
     5     5     6   ar
     6     6     7   ar
     7     7     8   ar
     8     8    13    1
     9    13    14   ar
    10    14    15   ar
    11    15    16   ar
    12    16    17    1
    13    16    18   ar
    14    18    19   ar
    15     5     9    1
    16     9    10    1
    17    10    11   am
    18    11    12    2
    19    11    20    1
    20    20    21   ar
    21    21    22   ar
    22    22    23   ar
    23    23    24   ar
    24    24    27    1
    25    27    28    1
    26    27    29    1
    27    27    30    1
    28    24    25   ar
    29    25    26    1
    30    10     2    1
    31    25    20   ar
    32     8     4   ar
    33    19    13   ar
@<TRIPOS>MOLECULE
*****
 30 33 0 0 0
SMALL
GASTEIGER

@<TRIPOS>ATOM
      1 C         139.9183  139.7030  162.9737 C.3     1  UNL1        0.0219
      2 C         140.9475  140.7772  163.1660 C.3     1  UNL1        0.0820
      3 C         141.6760  141.3385  161.9810 C.3     1  UNL1        0.0671
      4 C         142.7052  142.4127  162.1732 C.ar    1  UNL1        0.0837
      5 C         143.0059  142.9255  163.5504 C.ar    1  UNL1        0.1159
      6 N         144.0639  143.9820  163.4309 N.ar    1  UNL1       -0.1314
      7 N         144.4171  144.1221  161.9798 N.ar    1  UNL1       -0.0576
      8 N         143.5774  143.1523  161.2025 N.ar    1  UNL1       -0.1813
      9 C         142.2774  142.3641  164.7353 C.3     1  UNL1        0.1426
     10 N         141.2482  141.2899  164.5431 N.am    1  UNL1       -0.2715
     11 C         140.5196  140.7285  165.7281 C.2     1  UNL1        0.2514
     12 O         139.4904  139.6544  165.5359 O.2     1  UNL1       -0.2698
     13 C         143.6050  142.9564  159.7156 C.ar    1  UNL1        0.2543
     14 N         142.8664  143.9064  158.8202 N.ar    1  UNL1       -0.2060
     15 C         142.8940  143.7105  157.3332 C.ar    1  UNL1        0.1332
     16 C         143.6603  142.5647  156.7418 C.ar    1  UNL1        0.1784
     17 F         143.6879  142.3689  155.2549 F       1  UNL1       -0.2009
     18 C         144.3989  141.6147  157.6373 C.ar    1  UNL1        0.1332
     19 N         144.3713  141.8105  159.1242 N.ar    1  UNL1       -0.2060
     20 C         140.8203  141.2414  167.1053 C.ar    1  UNL1        0.0809
     21 C         140.2594  142.5580  167.5544 C.ar    1  UNL1        0.0068
     22 C         140.5601  143.0709  168.9315 C.ar    1  UNL1        0.0002
     23 C         141.4217  142.2670  169.8596 C.ar    1  UNL1        0.0061
     24 C         141.9826  140.9503  169.4105 C.ar    1  UNL1        0.0989
     25 C         141.6819  140.4375  168.0334 C.ar    1  UNL1        0.1483
     26 F         142.2429  139.1208  167.5843 F       1  UNL1       -0.2041
     27 C         142.8443  140.1463  170.3386 C.3     1  UNL1        0.4207
     28 F         143.7059  139.3423  171.2666 F       1  UNL1       -0.1658
     29 F         141.7794  139.0928  170.4145 F       1  UNL1       -0.1658
     30 F         143.9092  141.2000  170.2626 F       1  UNL1       -0.1658
@<TRIPOS>BOND
     1     2     1    1
     2     2     3    1
     3     3     4    1
     4     4     5   ar
     5     5     6   ar
     6     6     7   ar
     7     7     8   ar
     8     8    13    1
     9    13    14   ar
    10    14    15   ar
    11    15    16   ar
    12    16    17    1
    13    16    18   ar
    14    18    19   ar
    15     5     9    1
    16     9    10    1
    17    10    11   am
    18    11    12    2
    19    11    20    1
    20    20    21   ar
    21    21    22   ar
    22    22    23   ar
    23    23    24   ar
    24    24    27    1
    25    27    28    1
    26    27    29    1
    27    27    30    1
    28    24    25   ar
    29    25    26    1
    30    10     2    1
    31    25    20   ar
    32     8     4   ar
    33    19    13   ar
