@<TRIPOS>MOLECULE
*****
 29 33 0 0 0
SMALL
GASTEIGER

@<TRIPOS>ATOM
      1 C         142.8914  143.2948  158.3399 C.ar    1  UNL1        0.1917
      2 N         142.1958  144.4199  157.6327 N.ar    1  UNL1       -0.1268
      3 N         141.3665  145.1588  158.6408 N.ar    1  UNL1       -0.1316
      4 C         141.5496  144.4904  159.9711 C.ar    1  UNL1        0.1615
      5 N         142.4921  143.3384  159.7851 N.ar    1  UNL1       -0.2940
      6 C         142.8649  142.4778  160.9558 C.3     1  UNL1        0.1302
      7 C         142.2952  142.7694  162.3125 C.3     1  UNL1        0.1186
      8 N         141.3528  143.9214  162.4985 N.am    1  UNL1       -0.2688
      9 C         140.7831  144.2129  163.8551 C.2     1  UNL1        0.2493
     10 O         139.8407  145.3650  164.0411 O.2     1  UNL1       -0.2699
     11 C         140.9800  144.7819  161.3277 C.3     1  UNL1        0.1343
     12 C         140.0375  145.9340  161.5137 C.3     1  UNL1        0.0298
     13 C         146.7277  141.1685  155.4002 C.3     1  UNL1        0.0744
     14 C         145.5862  141.3233  156.3609 C.ar    1  UNL1        0.1481
     15 N         144.9263  140.2184  157.1314 N.ar    1  UNL1       -0.1929
     16 S         143.8364  140.8224  157.9665 S.2     1  UNL1        0.0369
     17 C         143.8229  142.3007  157.7122 C.ar    1  UNL1        0.1652
     18 N         144.9043  142.6102  156.7199 N.ar    1  UNL1       -0.2190
     19 C         141.1559  143.3524  165.0258 C.ar    1  UNL1        0.0536
     20 C         142.6006  143.1068  165.3461 C.ar    1  UNL1        0.0045
     21 C         142.9734  142.2462  166.5169 C.ar    1  UNL1        0.0006
     22 C         141.9015  141.6313  167.3671 C.ar    1  UNL1        0.0060
     23 C         140.4569  141.8769  167.0467 C.ar    1  UNL1        0.0006
     24 C         140.0841  142.7375  165.8761 C.ar    1  UNL1        0.0045
     25 C         142.2743  140.7708  168.5379 C.ar    1  UNL1        0.0295
     26 C         142.2272  139.2721  168.5810 C.ar    1  UNL1        0.0070
     27 C         142.6834  138.8330  169.9408 C.ar    1  UNL1        0.0075
     28 C         143.0125  140.0602  170.7381 C.ar    1  UNL1        0.0354
     29 S         142.7596  141.2579  169.8710 S.2     1  UNL1       -0.0864
@<TRIPOS>BOND
     1    13    14    1
     2    14    15   ar
     3    15    16   ar
     4    16    17   ar
     5    17     1    1
     6     1     2   ar
     7     2     3   ar
     8     3     4   ar
     9     4     5   ar
    10     5     6    1
    11     6     7    1
    12     7     8    1
    13     8     9   am
    14     9    10    2
    15     9    19    1
    16    19    20   ar
    17    20    21   ar
    18    21    22   ar
    19    22    25    1
    20    25    26   ar
    21    26    27   ar
    22    27    28   ar
    23    28    29   ar
    24    22    23   ar
    25    23    24   ar
    26     8    11    1
    27    11    12    1
    28    17    18   ar
    29    18    14   ar
    30     5     1   ar
    31    24    19   ar
    32    11     4    1
    33    29    25   ar
@<TRIPOS>MOLECULE
*****
 29 33 0 0 0
SMALL
GASTEIGER

@<TRIPOS>ATOM
      1 C         140.6704  140.6621  168.1320 C.ar    1  UNL1        0.1917
      2 N         139.5219  139.8536  168.6585 N.ar    1  UNL1       -0.1268
      3 N         138.9410  139.0747  167.5158 N.ar    1  UNL1       -0.1316
      4 C         139.7304  139.4019  166.2830 C.ar    1  UNL1        0.1615
      5 N         140.7993  140.3830  166.6638 N.ar    1  UNL1       -0.2940
      6 C         141.7518  140.8954  165.6245 C.3     1  UNL1        0.1302
      7 C         141.6354  140.4267  164.2043 C.3     1  UNL1        0.1186
      8 N         140.5666  139.4456  163.8235 N.am    1  UNL1       -0.2688
      9 C         140.4502  138.9769  162.4034 C.2     1  UNL1        0.2493
     10 O         139.3814  137.9959  162.0226 O.2     1  UNL1       -0.2699
     11 C         139.6141  138.9332  164.8629 C.3     1  UNL1        0.1343
     12 C         138.5452  137.9521  164.4821 C.3     1  UNL1        0.0298
     13 C         144.9044  143.0033  170.2469 C.3     1  UNL1        0.0744
     14 C         143.4840  142.6635  169.9050 C.ar    1  UNL1        0.1481
     15 N         142.2612  143.3590  170.4259 N.ar    1  UNL1       -0.1929
     16 S         141.0584  142.6939  169.8251 S.2     1  UNL1        0.0369
     17 C         141.5378  141.5874  168.9329 C.ar    1  UNL1        0.1652
     18 N         143.0369  141.5686  168.9823 N.ar    1  UNL1       -0.2190
     19 C         141.4027  139.4893  161.3641 C.ar    1  UNL1        0.0536
     20 C         142.6861  138.7598  161.0982 C.ar    1  UNL1        0.0045
     21 C         143.6386  139.2723  160.0588 C.ar    1  UNL1        0.0006
     22 C         143.3077  140.5142  159.2855 C.ar    1  UNL1        0.0060
     23 C         142.0244  141.2437  159.5515 C.ar    1  UNL1        0.0006
     24 C         141.0719  140.7313  160.5907 C.ar    1  UNL1        0.0045
     25 C         144.2603  141.0267  158.2462 C.ar    1  UNL1        0.0295
     26 C         144.6620  140.3126  156.9897 C.ar    1  UNL1        0.0070
     27 C         145.6282  141.1878  156.2479 C.ar    1  UNL1        0.0075
     28 C         145.8237  142.4428  157.0459 C.ar    1  UNL1        0.0354
     29 S         144.9782  142.3432  158.2809 S.2     1  UNL1       -0.0864
@<TRIPOS>BOND
     1    13    14    1
     2    14    15   ar
     3    15    16   ar
     4    16    17   ar
     5    17     1    1
     6     1     2   ar
     7     2     3   ar
     8     3     4   ar
     9     4     5   ar
    10     5     6    1
    11     6     7    1
    12     7     8    1
    13     8     9   am
    14     9    10    2
    15     9    19    1
    16    19    20   ar
    17    20    21   ar
    18    21    22   ar
    19    22    25    1
    20    25    26   ar
    21    26    27   ar
    22    27    28   ar
    23    28    29   ar
    24    22    23   ar
    25    23    24   ar
    26     8    11    1
    27    11    12    1
    28    17    18   ar
    29    18    14   ar
    30     5     1   ar
    31    24    19   ar
    32    11     4    1
    33    29    25   ar
@<TRIPOS>MOLECULE
*****
 29 33 0 0 0
SMALL
GASTEIGER

@<TRIPOS>ATOM
      1 C         141.2319  141.2495  167.4245 C.ar    1  UNL1        0.1917
      2 N         142.4151  141.5654  168.2906 N.ar    1  UNL1       -0.1268
      3 N         143.3760  142.3851  167.4815 N.ar    1  UNL1       -0.1316
      4 C         142.7866  142.5759  166.1154 C.ar    1  UNL1        0.1615
      5 N         141.4615  141.8740  166.0802 N.ar    1  UNL1       -0.2940
      6 C         140.6351  141.8942  164.8286 C.3     1  UNL1        0.1302
      7 C         141.1338  142.6164  163.6120 C.3     1  UNL1        0.1186
      8 N         142.4590  143.3182  163.6473 N.am    1  UNL1       -0.2688
      9 C         142.9578  144.0403  162.4308 C.2     1  UNL1        0.2493
     10 O         144.2830  144.7422  162.4660 O.2     1  UNL1       -0.2699
     11 C         143.2854  143.2980  164.8990 C.3     1  UNL1        0.1343
     12 C         144.6106  143.9998  164.9342 C.3     1  UNL1        0.0298
     13 C         137.1172  137.9434  167.2832 C.3     1  UNL1        0.0744
     14 C         138.1387  138.9299  167.7664 C.ar    1  UNL1        0.1481
     15 N         138.2222  139.5071  169.1484 N.ar    1  UNL1       -0.1929
     16 S         139.3911  140.4463  169.1885 S.2     1  UNL1        0.0369
     17 C         140.0300  140.4495  167.8314 C.ar    1  UNL1        0.1652
     18 N         139.2559  139.5123  166.9524 N.ar    1  UNL1       -0.2190
     19 C         142.1314  144.0606  161.1792 C.ar    1  UNL1        0.0536
     20 C         141.1063  145.1363  160.9746 C.ar    1  UNL1        0.0045
     21 C         140.2799  145.1565  159.7229 C.ar    1  UNL1        0.0006
     22 C         140.4786  144.1010  158.6759 C.ar    1  UNL1        0.0060
     23 C         141.5037  143.0252  158.8805 C.ar    1  UNL1        0.0006
     24 C         142.3301  143.0050  160.1321 C.ar    1  UNL1        0.0045
     25 C         139.6522  144.1212  157.4242 C.ar    1  UNL1        0.0295
     26 C         138.6342  143.0951  157.0231 C.ar    1  UNL1        0.0070
     27 C         138.0516  143.5108  155.7049 C.ar    1  UNL1        0.0075
     28 C         138.7095  144.7938  155.2912 C.ar    1  UNL1        0.0354
     29 S         139.6988  145.1711  156.3539 S.2     1  UNL1       -0.0864
@<TRIPOS>BOND
     1    13    14    1
     2    14    15   ar
     3    15    16   ar
     4    16    17   ar
     5    17     1    1
     6     1     2   ar
     7     2     3   ar
     8     3     4   ar
     9     4     5   ar
    10     5     6    1
    11     6     7    1
    12     7     8    1
    13     8     9   am
    14     9    10    2
    15     9    19    1
    16    19    20   ar
    17    20    21   ar
    18    21    22   ar
    19    22    25    1
    20    25    26   ar
    21    26    27   ar
    22    27    28   ar
    23    28    29   ar
    24    22    23   ar
    25    23    24   ar
    26     8    11    1
    27    11    12    1
    28    17    18   ar
    29    18    14   ar
    30     5     1   ar
    31    24    19   ar
    32    11     4    1
    33    29    25   ar
@<TRIPOS>MOLECULE
*****
 29 33 0 0 0
SMALL
GASTEIGER

@<TRIPOS>ATOM
      1 C         140.3677  140.1427  158.2841 C.ar    1  UNL1        0.1917
      2 N         141.3304  139.3929  157.4119 N.ar    1  UNL1       -0.1268
      3 N         142.4597  138.9125  158.2744 N.ar    1  UNL1       -0.1316
      4 C         142.1949  139.3654  159.6796 C.ar    1  UNL1        0.1615
      5 N         140.9019  140.1257  159.6857 N.ar    1  UNL1       -0.2940
      6 C         140.3781  140.7044  160.9666 C.3     1  UNL1        0.1302
      7 C         141.1472  140.5227  162.2415 C.3     1  UNL1        0.1186
      8 N         142.4402  139.7623  162.2355 N.am    1  UNL1       -0.2688
      9 C         143.2094  139.5806  163.5104 C.2     1  UNL1        0.2493
     10 O         144.5024  138.8202  163.5043 O.2     1  UNL1       -0.2699
     11 C         142.9641  139.1837  160.9545 C.3     1  UNL1        0.1343
     12 C         144.2570  138.4233  160.9485 C.3     1  UNL1        0.0298
     13 C         135.5592  140.8877  156.2338 C.3     1  UNL1        0.0744
     14 C         136.8839  141.1375  156.8915 C.ar    1  UNL1        0.1481
     15 N         137.3850  142.4603  157.3907 N.ar    1  UNL1       -0.1929
     16 S         138.7510  142.2486  157.9731 S.2     1  UNL1        0.0369
     17 C         139.0942  140.7951  157.8339 C.ar    1  UNL1        0.1652
     18 N         137.9403  140.1083  157.1654 N.ar    1  UNL1       -0.2190
     19 C         142.6856  140.1592  164.7913 C.ar    1  UNL1        0.0536
     20 C         141.7666  139.3512  165.6588 C.ar    1  UNL1        0.0045
     21 C         141.2428  139.9299  166.9397 C.ar    1  UNL1        0.0006
     22 C         141.6379  141.3166  167.3531 C.ar    1  UNL1        0.0060
     23 C         142.5568  142.1246  166.4856 C.ar    1  UNL1        0.0006
     24 C         143.0807  141.5460  165.2047 C.ar    1  UNL1        0.0045
     25 C         141.1141  141.8953  168.6341 C.ar    1  UNL1        0.0295
     26 C         140.4481  143.2301  168.7912 C.ar    1  UNL1        0.0070
     27 C         140.0867  143.4005  170.2370 C.ar    1  UNL1        0.0075
     28 C         140.5293  142.1710  170.9735 C.ar    1  UNL1        0.0354
     29 S         141.1643  141.2406  169.9827 S.2     1  UNL1       -0.0864
@<TRIPOS>BOND
     1    13    14    1
     2    14    15   ar
     3    15    16   ar
     4    16    17   ar
     5    17     1    1
     6     1     2   ar
     7     2     3   ar
     8     3     4   ar
     9     4     5   ar
    10     5     6    1
    11     6     7    1
    12     7     8    1
    13     8     9   am
    14     9    10    2
    15     9    19    1
    16    19    20   ar
    17    20    21   ar
    18    21    22   ar
    19    22    25    1
    20    25    26   ar
    21    26    27   ar
    22    27    28   ar
    23    28    29   ar
    24    22    23   ar
    25    23    24   ar
    26     8    11    1
    27    11    12    1
    28    17    18   ar
    29    18    14   ar
    30     5     1   ar
    31    24    19   ar
    32    11     4    1
    33    29    25   ar
@<TRIPOS>MOLECULE
*****
 29 33 0 0 0
SMALL
GASTEIGER

@<TRIPOS>ATOM
      1 C         142.7568  140.0207  158.2034 C.ar    1  UNL1        0.1917
      2 N         141.9356  139.1005  157.3498 N.ar    1  UNL1       -0.1268
      3 N         140.8361  138.5370  158.2005 N.ar    1  UNL1       -0.1316
      4 C         140.9778  139.1090  159.5799 C.ar    1  UNL1        0.1615
      5 N         142.1649  140.0260  159.5817 N.ar    1  UNL1       -0.2940
      6 C         142.5535  140.7473  160.8381 C.3     1  UNL1        0.1302
      7 C         141.7550  140.5517  162.0928 C.3     1  UNL1        0.1186
      8 N         140.5679  139.6347  162.0910 N.am    1  UNL1       -0.2688
      9 C         139.7695  139.4390  163.3456 C.2     1  UNL1        0.2493
     10 O         138.5824  138.5220  163.3438 O.2     1  UNL1       -0.2699
     11 C         140.1794  138.9134  160.8345 C.3     1  UNL1        0.1343
     12 C         138.9923  137.9964  160.8327 C.3     1  UNL1        0.0298
     13 C         147.1423  141.4527  155.6349 C.3     1  UNL1        0.0744
     14 C         145.9747  141.4573  156.5765 C.ar    1  UNL1        0.1481
     15 N         145.6429  142.5363  157.5643 N.ar    1  UNL1       -0.1929
     16 S         144.3970  142.1294  158.2940 S.2     1  UNL1        0.0369
     17 C         143.9589  140.7991  157.7572 C.ar    1  UNL1        0.1652
     18 N         144.9340  140.3836  156.6957 N.ar    1  UNL1       -0.2190
     19 C         140.1581  140.1603  164.6021 C.ar    1  UNL1        0.0536
     20 C         141.0862  139.5092  165.5842 C.ar    1  UNL1        0.0045
     21 C         141.4748  140.2306  166.8407 C.ar    1  UNL1        0.0006
     22 C         140.9352  141.6030  167.1150 C.ar    1  UNL1        0.0060
     23 C         140.0071  142.2541  166.1328 C.ar    1  UNL1        0.0006
     24 C         139.6185  141.5328  164.8764 C.ar    1  UNL1        0.0045
     25 C         141.3238  142.3244  168.3715 C.ar    1  UNL1        0.0295
     26 C         140.4757  143.3084  169.1214 C.ar    1  UNL1        0.0070
     27 C         141.2565  143.7806  170.3120 C.ar    1  UNL1        0.0075
     28 C         142.5872  143.0883  170.2979 C.ar    1  UNL1        0.0354
     29 S         142.6288  142.1883  169.0985 S.2     1  UNL1       -0.0864
@<TRIPOS>BOND
     1    13    14    1
     2    14    15   ar
     3    15    16   ar
     4    16    17   ar
     5    17     1    1
     6     1     2   ar
     7     2     3   ar
     8     3     4   ar
     9     4     5   ar
    10     5     6    1
    11     6     7    1
    12     7     8    1
    13     8     9   am
    14     9    10    2
    15     9    19    1
    16    19    20   ar
    17    20    21   ar
    18    21    22   ar
    19    22    25    1
    20    25    26   ar
    21    26    27   ar
    22    27    28   ar
    23    28    29   ar
    24    22    23   ar
    25    23    24   ar
    26     8    11    1
    27    11    12    1
    28    17    18   ar
    29    18    14   ar
    30     5     1   ar
    31    24    19   ar
    32    11     4    1
    33    29    25   ar
@<TRIPOS>MOLECULE
*****
 29 33 0 0 0
SMALL
GASTEIGER

@<TRIPOS>ATOM
      1 C         138.6609  139.7455  155.9097 C.ar    1  UNL1        0.1917
      2 N         139.5052  139.1413  154.8270 N.ar    1  UNL1       -0.1268
      3 N         140.6835  138.4764  155.4747 N.ar    1  UNL1       -0.1316
      4 C         140.5674  138.6696  156.9577 C.ar    1  UNL1        0.1615
      5 N         139.3174  139.4540  157.2265 N.ar    1  UNL1       -0.2940
      6 C         138.9384  139.8014  158.6356 C.3     1  UNL1        0.1302
      7 C         139.8095  139.3645  159.7760 C.3     1  UNL1        0.1186
      8 N         141.0595  138.5801  159.5072 N.am    1  UNL1       -0.2688
      9 C         141.9305  138.1432  160.6475 C.2     1  UNL1        0.2493
     10 O         143.1805  137.3589  160.3787 O.2     1  UNL1       -0.2699
     11 C         141.4384  138.2327  158.0980 C.3     1  UNL1        0.1343
     12 C         142.6885  137.4484  157.8292 C.3     1  UNL1        0.0298
     13 C         133.5316  140.9318  155.5053 C.3     1  UNL1        0.0744
     14 C         135.0266  141.0527  155.5246 C.ar    1  UNL1        0.1481
     15 N         135.8128  142.3071  155.2833 N.ar    1  UNL1       -0.1929
     16 S         137.2700  141.9701  155.3982 S.2     1  UNL1        0.0369
     17 C         137.3843  140.5074  155.7105 C.ar    1  UNL1        0.1652
     18 N         135.9978  139.9404  155.7886 N.ar    1  UNL1       -0.2190
     19 C         141.5516  138.4906  162.0566 C.ar    1  UNL1        0.0536
     20 C         140.5697  137.6358  162.8017 C.ar    1  UNL1        0.0045
     21 C         140.1907  137.9833  164.2109 C.ar    1  UNL1        0.0006
     22 C         140.7936  139.1855  164.8749 C.ar    1  UNL1        0.0060
     23 C         141.7755  140.0404  164.1298 C.ar    1  UNL1        0.0006
     24 C         142.1545  139.6930  162.7207 C.ar    1  UNL1        0.0045
     25 C         140.4147  139.5330  166.2841 C.ar    1  UNL1        0.0295
     26 C         139.0363  139.4564  166.8709 C.ar    1  UNL1        0.0070
     27 C         139.1174  139.8942  168.3033 C.ar    1  UNL1        0.0075
     28 C         140.5458  140.2413  168.6018 C.ar    1  UNL1        0.0354
     29 S         141.3476  140.0181  167.3538 S.2     1  UNL1       -0.0864
@<TRIPOS>BOND
     1    13    14    1
     2    14    15   ar
     3    15    16   ar
     4    16    17   ar
     5    17     1    1
     6     1     2   ar
     7     2     3   ar
     8     3     4   ar
     9     4     5   ar
    10     5     6    1
    11     6     7    1
    12     7     8    1
    13     8     9   am
    14     9    10    2
    15     9    19    1
    16    19    20   ar
    17    20    21   ar
    18    21    22   ar
    19    22    25    1
    20    25    26   ar
    21    26    27   ar
    22    27    28   ar
    23    28    29   ar
    24    22    23   ar
    25    23    24   ar
    26     8    11    1
    27    11    12    1
    28    17    18   ar
    29    18    14   ar
    30     5     1   ar
    31    24    19   ar
    32    11     4    1
    33    29    25   ar
@<TRIPOS>MOLECULE
*****
 29 33 0 0 0
SMALL
GASTEIGER

@<TRIPOS>ATOM
      1 C         138.5291  141.6935  162.9315 C.ar    1  UNL1        0.1917
      2 N         137.9532  143.0521  162.6621 N.ar    1  UNL1       -0.1268
      3 N         138.0415  143.3087  161.1869 N.ar    1  UNL1       -0.1316
      4 C         138.6719  142.1087  160.5445 C.ar    1  UNL1        0.1615
      5 N         138.9733  141.1105  161.6228 N.ar    1  UNL1       -0.2940
      6 C         139.6132  139.7996  161.2736 C.3     1  UNL1        0.1302
      7 C         139.9518  139.4869  159.8462 C.3     1  UNL1        0.1186
      8 N         139.6505  140.4851  158.7679 N.am    1  UNL1       -0.2688
      9 C         139.9890  140.1725  157.3405 C.2     1  UNL1        0.2493
     10 O         139.6877  141.1707  156.2622 O.2     1  UNL1       -0.2699
     11 C         139.0105  141.7961  159.1171 C.3     1  UNL1        0.1343
     12 C         138.7092  142.7944  158.0389 C.3     1  UNL1        0.0298
     13 C         137.7989  138.3734  166.9718 C.3     1  UNL1        0.0744
     14 C         138.3054  139.5077  166.1311 C.ar    1  UNL1        0.1481
     15 N         139.3214  140.5293  166.5485 N.ar    1  UNL1       -0.1929
     16 S         139.5288  141.4725  165.4006 S.2     1  UNL1        0.0369
     17 C         138.6411  141.0338  164.2740 C.ar    1  UNL1        0.1652
     18 N         137.8850  139.8194  164.7254 N.ar    1  UNL1       -0.2190
     19 C         140.6290  138.8616  156.9913 C.ar    1  UNL1        0.0536
     20 C         139.8265  137.7932  156.3098 C.ar    1  UNL1        0.0045
     21 C         140.4665  136.4822  155.9607 C.ar    1  UNL1        0.0006
     22 C         141.9089  136.2397  156.2930 C.ar    1  UNL1        0.0060
     23 C         142.7114  137.3081  156.9746 C.ar    1  UNL1        0.0006
     24 C         142.0715  138.6190  157.3237 C.ar    1  UNL1        0.0045
     25 C         142.5489  134.9287  155.9439 C.ar    1  UNL1        0.0295
     26 C         142.2047  134.0654  154.7665 C.ar    1  UNL1        0.0070
     27 C         143.0885  132.8541  154.8058 C.ar    1  UNL1        0.0075
     28 C         143.9790  132.9687  156.0075 C.ar    1  UNL1        0.0354
     29 S         143.6454  134.2510  156.7109 S.2     1  UNL1       -0.0864
@<TRIPOS>BOND
     1    13    14    1
     2    14    15   ar
     3    15    16   ar
     4    16    17   ar
     5    17     1    1
     6     1     2   ar
     7     2     3   ar
     8     3     4   ar
     9     4     5   ar
    10     5     6    1
    11     6     7    1
    12     7     8    1
    13     8     9   am
    14     9    10    2
    15     9    19    1
    16    19    20   ar
    17    20    21   ar
    18    21    22   ar
    19    22    25    1
    20    25    26   ar
    21    26    27   ar
    22    27    28   ar
    23    28    29   ar
    24    22    23   ar
    25    23    24   ar
    26     8    11    1
    27    11    12    1
    28    17    18   ar
    29    18    14   ar
    30     5     1   ar
    31    24    19   ar
    32    11     4    1
    33    29    25   ar
@<TRIPOS>MOLECULE
*****
 29 33 0 0 0
SMALL
GASTEIGER

@<TRIPOS>ATOM
      1 C         141.0406  140.9400  158.0223 C.ar    1  UNL1        0.1917
      2 N         140.8581  142.1062  157.0968 N.ar    1  UNL1       -0.1268
      3 N         140.8444  143.3571  157.9246 N.ar    1  UNL1       -0.1316
      4 C         141.0184  142.9639  159.3617 C.ar    1  UNL1        0.1615
      5 N         141.1396  141.4700  159.4221 N.ar    1  UNL1       -0.2940
      6 C         141.3245  140.7854  160.7438 C.3     1  UNL1        0.1302
      7 C         141.3882  141.5946  162.0052 C.3     1  UNL1        0.1186
      8 N         141.2670  143.0885  161.9448 N.am    1  UNL1       -0.2688
      9 C         141.3307  143.8977  163.2062 C.2     1  UNL1        0.2493
     10 O         141.2094  145.3916  163.1458 O.2     1  UNL1       -0.2699
     11 C         141.0821  143.7731  160.6230 C.3     1  UNL1        0.1343
     12 C         140.9608  145.2670  160.5626 C.3     1  UNL1        0.0298
     13 C         142.8894  136.1164  156.9291 C.3     1  UNL1        0.0744
     14 C         141.9614  137.2798  157.1165 C.ar    1  UNL1        0.1481
     15 N         140.4801  137.2730  156.8799 N.ar    1  UNL1       -0.1929
     16 S         139.9549  138.6434  157.1905 S.2     1  UNL1        0.0369
     17 C         141.1115  139.4970  157.6189 C.ar    1  UNL1        0.1652
     18 N         142.3516  138.6543  157.5732 N.ar    1  UNL1       -0.2190
     19 C         141.5156  143.2131  164.5279 C.ar    1  UNL1        0.0536
     20 C         140.3204  142.8520  165.3592 C.ar    1  UNL1        0.0045
     21 C         140.5054  142.1673  166.6810 C.ar    1  UNL1        0.0006
     22 C         141.8855  141.8438  167.1715 C.ar    1  UNL1        0.0060
     23 C         143.0807  142.2049  166.3402 C.ar    1  UNL1        0.0006
     24 C         142.8958  142.8896  165.0184 C.ar    1  UNL1        0.0045
     25 C         142.0705  141.1591  168.4933 C.ar    1  UNL1        0.0295
     26 C         142.4883  139.7329  168.6966 C.ar    1  UNL1        0.0070
     27 C         142.5461  139.4729  170.1728 C.ar    1  UNL1        0.0075
     28 C         142.1640  140.7384  170.8818 C.ar    1  UNL1        0.0354
     29 S         141.8700  141.7806  169.8437 S.2     1  UNL1       -0.0864
@<TRIPOS>BOND
     1    13    14    1
     2    14    15   ar
     3    15    16   ar
     4    16    17   ar
     5    17     1    1
     6     1     2   ar
     7     2     3   ar
     8     3     4   ar
     9     4     5   ar
    10     5     6    1
    11     6     7    1
    12     7     8    1
    13     8     9   am
    14     9    10    2
    15     9    19    1
    16    19    20   ar
    17    20    21   ar
    18    21    22   ar
    19    22    25    1
    20    25    26   ar
    21    26    27   ar
    22    27    28   ar
    23    28    29   ar
    24    22    23   ar
    25    23    24   ar
    26     8    11    1
    27    11    12    1
    28    17    18   ar
    29    18    14   ar
    30     5     1   ar
    31    24    19   ar
    32    11     4    1
    33    29    25   ar
@<TRIPOS>MOLECULE
*****
 29 33 0 0 0
SMALL
GASTEIGER

@<TRIPOS>ATOM
      1 C         142.9786  137.3914  156.0131 C.ar    1  UNL1        0.1917
      2 N         143.2846  138.2348  154.8111 N.ar    1  UNL1       -0.1268
      3 N         143.5900  139.6246  155.2856 N.ar    1  UNL1       -0.1316
      4 C         143.4729  139.6401  156.7810 C.ar    1  UNL1        0.1615
      5 N         143.0950  138.2598  157.2306 N.ar    1  UNL1       -0.2940
      6 C         142.9056  137.9722  158.6905 C.3     1  UNL1        0.1302
      7 C         143.0942  139.0648  159.7009 C.3     1  UNL1        0.1186
      8 N         143.4721  140.4450  159.2512 N.am    1  UNL1       -0.2688
      9 C         143.6606  141.5376  160.2615 C.2     1  UNL1        0.2493
     10 O         144.0385  142.9178  159.8119 O.2     1  UNL1       -0.2699
     11 C         143.6614  140.7326  157.7913 C.3     1  UNL1        0.1343
     12 C         144.0393  142.1129  157.3416 C.3     1  UNL1        0.0298
     13 C         143.0620  132.1901  156.9193 C.3     1  UNL1        0.0744
     14 C         142.6577  133.5443  156.4166 C.ar    1  UNL1        0.1481
     15 N         141.4754  133.8438  155.5434 N.ar    1  UNL1       -0.1929
     16 S         141.4517  135.3214  155.2860 S.2     1  UNL1        0.0369
     17 C         142.6194  135.9351  156.0001 C.ar    1  UNL1        0.1652
     18 N         143.3647  134.8368  156.6988 N.ar    1  UNL1       -0.2190
     19 C         143.4713  141.2499  161.7214 C.ar    1  UNL1        0.0536
     20 C         144.6582  140.9410  162.5851 C.ar    1  UNL1        0.0045
     21 C         144.4688  140.6533  164.0451 C.ar    1  UNL1        0.0006
     22 C         143.0926  140.6746  164.6413 C.ar    1  UNL1        0.0060
     23 C         141.9057  140.9835  163.7776 C.ar    1  UNL1        0.0006
     24 C         142.0951  141.2711  162.3177 C.ar    1  UNL1        0.0045
     25 C         142.9032  140.3869  166.1013 C.ar    1  UNL1        0.0295
     26 C         142.9581  139.0345  166.7478 C.ar    1  UNL1        0.0070
     27 C         142.7145  139.2129  168.2171 C.ar    1  UNL1        0.0075
     28 C         142.5091  140.6756  168.4787 C.ar    1  UNL1        0.0354
     29 S         142.6257  141.4012  167.1709 S.2     1  UNL1       -0.0864
@<TRIPOS>BOND
     1    13    14    1
     2    14    15   ar
     3    15    16   ar
     4    16    17   ar
     5    17     1    1
     6     1     2   ar
     7     2     3   ar
     8     3     4   ar
     9     4     5   ar
    10     5     6    1
    11     6     7    1
    12     7     8    1
    13     8     9   am
    14     9    10    2
    15     9    19    1
    16    19    20   ar
    17    20    21   ar
    18    21    22   ar
    19    22    25    1
    20    25    26   ar
    21    26    27   ar
    22    27    28   ar
    23    28    29   ar
    24    22    23   ar
    25    23    24   ar
    26     8    11    1
    27    11    12    1
    28    17    18   ar
    29    18    14   ar
    30     5     1   ar
    31    24    19   ar
    32    11     4    1
    33    29    25   ar
