@<TRIPOS>MOLECULE
*****
 40 43 0 0 0
SMALL
GASTEIGER

@<TRIPOS>ATOM
      1 N         143.2992  138.4928  157.0864 N.am    1  UNL1       -0.2531
      2 C         142.9459  138.7213  158.5262 C.2     1  UNL1        0.3135
      3 O         142.1867  137.6753  159.2873 O.2     1  UNL1       -0.2518
      4 N         143.3521  139.9959  159.2049 N.am    1  UNL1       -0.2282
      5 C         144.1113  141.0419  158.4438 C.3     1  UNL1        0.1015
      6 C         144.5174  142.3164  159.1225 C.3     1  UNL1        0.0268
      7 C         144.1642  142.5449  160.5623 C.3     1  UNL1        0.0310
      8 C         143.4049  141.4989  161.3234 C.ar    1  UNL1        0.0096
      9 C         143.0517  141.7274  162.7632 C.ar    1  UNL1       -0.0042
     10 C         142.2924  140.6814  163.5243 C.ar    1  UNL1       -0.0017
     11 CA        141.8863  139.4068  162.8456 C.ar    1  UNL1        0.1208
     12 N         142.2395  139.1783  161.4058 N.ar    1  UNL1       -0.2276
     13 C         142.9988  140.2244  160.6447 C.ar    1  UNL1        0.1345
     14 H         143.7975  139.1794  156.5868 H       1  UNL1        0.1578
     15 C         142.7505  134.6242  156.3918 C.ar    1  UNL1        0.1525
     16 C         143.1565  135.8987  157.0705 C.ar    1  UNL1        0.0721
     17 C         142.8931  137.2183  156.4076 C.ar    1  UNL1        0.1384
     18 N         142.2236  137.2633  155.0661 N.ar    1  UNL1       -0.2281
     19 C         141.8175  135.9887  154.3874 C.ar    1  UNL1        0.1136
     20 C         142.0810  134.6692  155.0502 C.ar    1  UNL1        0.1215
     21 C         141.6749  133.3947  154.3715 C.1     1  UNL1        0.1051
     22 N         141.2688  132.1201  153.6927 N.1     1  UNL1       -0.1907
     23 O         143.0139  133.3046  157.0546 O.3     1  UNL1       -0.4719
     24 C         144.2589  133.1092  157.8681 C.3     1  UNL1        0.2373
     25 C         145.2158  132.0072  157.5218 C.3     1  UNL1        0.1894
     26 C         144.8499  130.2744  155.6209 C.3     1  UNL1        0.1743
     27 O         145.3941  131.5904  156.0919 O.3     1  UNL1       -0.3471
     28 C         141.9392  140.9098  164.9641 C.3     1  UNL1        0.0267
     29 C         140.6999  141.6764  165.3198 C.3     1  UNL1        0.0218
     30 C         140.3467  141.9049  166.7596 C.3     1  UNL1        0.0727
     31 N         141.2327  141.3668  167.8437 N.3     1  UNL1       -0.2656
     32 C         142.4721  140.6002  167.4880 C.3     1  UNL1        0.0727
     33 C         142.8253  140.3717  166.0482 C.3     1  UNL1        0.0218
     34 C         140.8795  141.5953  169.2835 C.3     1  UNL1        0.1767
     35 C         139.5558  141.1302  169.8139 C.3     1  UNL1        0.4121
     36 F         138.2321  140.6651  170.3443 F       1  UNL1       -0.1685
     37 F         139.8282  139.7529  169.2860 F       1  UNL1       -0.1685
     38 F         139.2834  142.5075  170.3418 F       1  UNL1       -0.1685
     39 C         141.1270  138.3607  163.6067 C.2     1  UNL1        0.2529
     40 O         141.0997  136.9449  163.1118 O.2     1  UNL1       -0.2815
@<TRIPOS>BOND
     1    26    27    1
     2    27    25    1
     3    25    24    1
     4    24    23    1
     5    23    15    1
     6    15    16   ar
     7    16    17   ar
     8    17     1    1
     9     1     2   am
    10     2     3    2
    11     2     4   am
    12     4     5    1
    13     5     6    1
    14     6     7    1
    15     7     8    1
    16     8     9   ar
    17     9    10   ar
    18    10    28    1
    19    28    29    1
    20    29    30    1
    21    30    31    1
    22    31    34    1
    23    34    35    1
    24    35    36    1
    25    35    37    1
    26    35    38    1
    27    31    32    1
    28    32    33    1
    29    10    11   ar
    30    11    39    1
    31    39    40    2
    32    11    12   ar
    33    12    13   ar
    34    17    18   ar
    35    18    19   ar
    36    19    20   ar
    37    20    21    1
    38    21    22    3
    39    20    15   ar
    40    13     4    1
    41    13     8   ar
    42    33    28    1
    43     1    14    1
@<TRIPOS>MOLECULE
*****
 40 43 0 0 0
SMALL
GASTEIGER

@<TRIPOS>ATOM
      1 N         139.2064  144.2654  156.2654 N.am    1  UNL1       -0.2531
      2 C         139.5335  144.1955  157.7277 C.2     1  UNL1        0.3135
      3 O         140.2223  145.3470  158.3980 O.2     1  UNL1       -0.2518
      4 N         139.1718  142.9739  158.5195 N.am    1  UNL1       -0.2282
      5 C         138.4830  141.8223  157.8491 C.3     1  UNL1        0.1015
      6 C         138.1214  140.6008  158.6410 C.3     1  UNL1        0.0268
      7 C         138.4485  140.5309  160.1032 C.3     1  UNL1        0.0310
      8 C         139.1373  141.6824  160.7736 C.ar    1  UNL1        0.0096
      9 C         139.4644  141.6125  162.2358 C.ar    1  UNL1       -0.0042
     10 C         140.1532  142.7640  162.9062 C.ar    1  UNL1       -0.0017
     11 CA        140.5149  143.9856  162.1143 C.ar    1  UNL1        0.1208
     12 N         140.1878  144.0556  160.6521 N.ar    1  UNL1       -0.2276
     13 C         139.4990  142.9039  159.9817 C.ar    1  UNL1        0.1345
     14 H         138.7543  143.5096  155.8255 H       1  UNL1        0.1578
     15 C         139.2166  148.0038  154.9335 C.ar    1  UNL1        0.1525
     16 C         138.8549  146.7823  155.7254 C.ar    1  UNL1        0.0721
     17 C         139.5681  145.4869  155.4736 C.ar    1  UNL1        0.1384
     18 N         140.6430  145.4131  154.4299 N.ar    1  UNL1       -0.2281
     19 C         141.0046  146.6347  153.6380 C.ar    1  UNL1        0.1136
     20 C         140.2914  147.9300  153.8899 C.ar    1  UNL1        0.1215
     21 C         140.6531  149.1515  153.0980 C.1     1  UNL1        0.1051
     22 N         141.0148  150.3731  152.3061 N.1     1  UNL1       -0.1907
     23 O         138.5034  149.2992  155.1853 O.3     1  UNL1       -0.4719
     24 C         138.4753  149.8837  156.5665 C.3     1  UNL1        0.2373
     25 C         138.9295  151.2953  156.7928 C.3     1  UNL1        0.1894
     26 C         138.6944  152.7843  154.6768 C.3     1  UNL1        0.1743
     27 O         139.5588  152.0694  155.6726 O.3     1  UNL1       -0.3471
     28 C         140.4803  142.6941  164.3684 C.3     1  UNL1        0.0267
     29 C         139.5797  143.3530  165.3708 C.3     1  UNL1        0.0218
     30 C         139.9069  143.2830  166.8330 C.3     1  UNL1        0.0727
     31 N         141.1345  142.5542  167.2929 N.3     1  UNL1       -0.2656
     32 C         142.0352  141.8952  166.2905 C.3     1  UNL1        0.0727
     33 C         141.7081  141.9652  164.8283 C.3     1  UNL1        0.0218
     34 C         141.4617  142.4842  168.7551 C.3     1  UNL1        0.1767
     35 C         140.4269  142.8601  169.7739 C.3     1  UNL1        0.4121
     36 F         139.3922  143.2359  170.7928 F       1  UNL1       -0.1685
     37 F         141.0811  144.1991  169.9443 F       1  UNL1       -0.1685
     38 F         139.7728  141.5211  169.6035 F       1  UNL1       -0.1685
     39 C         141.2037  145.1372  162.7847 C.2     1  UNL1        0.2529
     40 O         142.6682  145.0553  163.0989 O.2     1  UNL1       -0.2815
@<TRIPOS>BOND
     1    26    27    1
     2    27    25    1
     3    25    24    1
     4    24    23    1
     5    23    15    1
     6    15    16   ar
     7    16    17   ar
     8    17     1    1
     9     1     2   am
    10     2     3    2
    11     2     4   am
    12     4     5    1
    13     5     6    1
    14     6     7    1
    15     7     8    1
    16     8     9   ar
    17     9    10   ar
    18    10    28    1
    19    28    29    1
    20    29    30    1
    21    30    31    1
    22    31    34    1
    23    34    35    1
    24    35    36    1
    25    35    37    1
    26    35    38    1
    27    31    32    1
    28    32    33    1
    29    10    11   ar
    30    11    39    1
    31    39    40    2
    32    11    12   ar
    33    12    13   ar
    34    17    18   ar
    35    18    19   ar
    36    19    20   ar
    37    20    21    1
    38    21    22    3
    39    20    15   ar
    40    13     4    1
    41    13     8   ar
    42    33    28    1
    43     1    14    1
@<TRIPOS>MOLECULE
*****
 40 43 0 0 0
SMALL
GASTEIGER

@<TRIPOS>ATOM
      1 N         139.0539  139.4577  156.6905 N.am    1  UNL1       -0.2531
      2 C         138.9547  139.6335  158.1769 C.2     1  UNL1        0.3135
      3 O         137.7621  140.3208  158.7729 O.2     1  UNL1       -0.2518
      4 N         140.0483  139.1220  159.0672 N.am    1  UNL1       -0.2282
      5 C         141.2409  138.4348  158.4711 C.3     1  UNL1        0.1015
      6 C         142.3344  137.9233  159.3614 C.3     1  UNL1        0.0268
      7 C         142.2353  138.0991  160.8478 C.3     1  UNL1        0.0310
      8 C         141.0427  138.7864  161.4438 C.ar    1  UNL1        0.0096
      9 C         140.9436  138.9622  162.9302 C.ar    1  UNL1       -0.0042
     10 C         139.7509  139.6494  163.5263 C.ar    1  UNL1       -0.0017
     11 CA        138.6574  140.1609  162.6360 C.ar    1  UNL1        0.1208
     12 N         138.7565  139.9851  161.1496 N.ar    1  UNL1       -0.2276
     13 C         139.9492  139.2978  160.5535 C.ar    1  UNL1        0.1345
     14 H         139.8366  139.0066  156.2993 H       1  UNL1        0.1578
     15 C         136.7755  141.9454  154.6000 C.ar    1  UNL1        0.1525
     16 C         137.8690  141.4340  155.4903 C.ar    1  UNL1        0.0721
     17 C         137.9604  139.9691  155.8002 C.ar    1  UNL1        0.1384
     18 N         136.9583  139.0158  155.2198 N.ar    1  UNL1       -0.2281
     19 C         135.8647  139.5273  154.3294 C.ar    1  UNL1        0.1136
     20 C         135.7734  140.9921  154.0196 C.ar    1  UNL1        0.1215
     21 C         134.6799  141.5035  153.1293 C.1     1  UNL1        0.1051
     22 N         133.5864  142.0150  152.2389 N.1     1  UNL1       -0.1907
     23 O         136.6841  143.4102  154.2902 O.3     1  UNL1       -0.4719
     24 C         137.9271  144.2492  154.2593 C.3     1  UNL1        0.2373
     25 C         138.2374  145.1724  155.4002 C.3     1  UNL1        0.1894
     26 C         138.9819  147.5102  156.2546 C.3     1  UNL1        0.1743
     27 O         138.5290  146.6198  155.1357 O.3     1  UNL1       -0.3471
     28 C         139.6518  139.8253  165.0126 C.3     1  UNL1        0.0267
     29 C         140.5003  140.8503  165.7048 C.3     1  UNL1        0.0218
     30 C         140.4012  141.0262  167.1912 C.3     1  UNL1        0.0727
     31 N         139.4536  140.1769  167.9853 N.3     1  UNL1       -0.2656
     32 C         138.6050  139.1517  167.2931 C.3     1  UNL1        0.0727
     33 C         138.7041  138.9759  165.8068 C.3     1  UNL1        0.0218
     34 C         139.3545  140.3527  169.4717 C.3     1  UNL1        0.1767
     35 C         140.5890  140.6263  170.2785 C.3     1  UNL1        0.4121
     36 F         141.8235  140.9000  171.0854 F       1  UNL1       -0.1685
     37 F         141.1268  139.2743  169.9141 F       1  UNL1       -0.1685
     38 F         140.0511  141.9783  170.6429 F       1  UNL1       -0.1685
     39 C         137.4648  140.8482  163.2320 C.2     1  UNL1        0.2529
     40 O         137.0329  142.1871  162.7115 O.2     1  UNL1       -0.2815
@<TRIPOS>BOND
     1    26    27    1
     2    27    25    1
     3    25    24    1
     4    24    23    1
     5    23    15    1
     6    15    16   ar
     7    16    17   ar
     8    17     1    1
     9     1     2   am
    10     2     3    2
    11     2     4   am
    12     4     5    1
    13     5     6    1
    14     6     7    1
    15     7     8    1
    16     8     9   ar
    17     9    10   ar
    18    10    28    1
    19    28    29    1
    20    29    30    1
    21    30    31    1
    22    31    34    1
    23    34    35    1
    24    35    36    1
    25    35    37    1
    26    35    38    1
    27    31    32    1
    28    32    33    1
    29    10    11   ar
    30    11    39    1
    31    39    40    2
    32    11    12   ar
    33    12    13   ar
    34    17    18   ar
    35    18    19   ar
    36    19    20   ar
    37    20    21    1
    38    21    22    3
    39    20    15   ar
    40    13     4    1
    41    13     8   ar
    42    33    28    1
    43     1    14    1
@<TRIPOS>MOLECULE
*****
 40 43 0 0 0
SMALL
GASTEIGER

@<TRIPOS>ATOM
      1 N         142.8772  140.3923  165.0981 N.am    1  UNL1       -0.2531
      2 C         142.4247  141.2335  163.9415 C.2     1  UNL1        0.3135
      3 O         141.5596  142.4351  164.1813 O.2     1  UNL1       -0.2518
      4 N         142.8375  140.8731  162.5452 N.am    1  UNL1       -0.2282
      5 C         143.7027  139.6715  162.3054 C.3     1  UNL1        0.1015
      6 C         144.1154  139.3112  160.9090 C.3     1  UNL1        0.0268
      7 C         143.6630  140.1525  159.7525 C.3     1  UNL1        0.0310
      8 C         142.7978  141.3541  159.9923 C.ar    1  UNL1        0.0096
      9 C         142.3453  142.1953  158.8358 C.ar    1  UNL1       -0.0042
     10 C         141.4802  143.3969  159.0756 C.ar    1  UNL1       -0.0017
     11 CA        141.0674  143.7573  160.4720 C.ar    1  UNL1        0.1208
     12 N         141.5198  142.9161  161.6285 N.ar    1  UNL1       -0.2276
     13 C         142.3851  141.7144  161.3886 C.ar    1  UNL1        0.1345
     14 H         143.4451  139.6036  164.9407 H       1  UNL1        0.1578
     15 C         141.0173  140.2922  168.6025 C.ar    1  UNL1        0.1525
     16 C         141.4301  139.9319  167.2061 C.ar    1  UNL1        0.0721
     17 C         142.4645  140.7526  166.4944 C.ar    1  UNL1        0.1384
     18 N         143.0861  141.9337  167.1790 N.ar    1  UNL1       -0.2281
     19 C         142.6733  142.2940  168.5754 C.ar    1  UNL1        0.1136
     20 C         141.6389  141.4733  169.2871 C.ar    1  UNL1        0.1215
     21 C         141.2262  141.8336  170.6834 C.1     1  UNL1        0.1051
     22 N         140.8134  142.1939  172.0798 N.1     1  UNL1       -0.1907
     23 O         139.9830  139.4715  169.3141 O.3     1  UNL1       -0.4719
     24 C         138.5392  139.8748  169.2615 C.3     1  UNL1        0.2373
     25 C         137.6641  139.6887  170.4656 C.3     1  UNL1        0.1894
     26 C         135.7498  138.4172  171.6774 C.3     1  UNL1        0.1743
     27 O         136.6874  138.5513  170.5143 O.3     1  UNL1       -0.3471
     28 C         141.0277  144.2382  157.9190 C.3     1  UNL1        0.0267
     29 C         139.7622  143.8941  157.1911 C.3     1  UNL1        0.0218
     30 C         139.3097  144.7354  156.0346 C.3     1  UNL1        0.0727
     31 N         140.1228  145.9208  155.6060 N.3     1  UNL1       -0.2656
     32 C         141.3884  146.2649  156.3340 C.3     1  UNL1        0.0727
     33 C         141.8409  145.4237  157.4905 C.3     1  UNL1        0.0218
     34 C         139.6703  146.7620  154.4495 C.3     1  UNL1        0.1767
     35 C         139.7242  148.2580  154.5439 C.3     1  UNL1        0.4121
     36 F         139.7781  149.7541  154.6383 F       1  UNL1       -0.1685
     37 F         140.7609  148.2891  153.4603 F       1  UNL1       -0.1685
     38 F         138.6875  148.2270  155.6275 F       1  UNL1       -0.1685
     39 C         140.2022  144.9589  160.7117 C.2     1  UNL1        0.2529
     40 O         140.3701  145.7661  161.9650 O.2     1  UNL1       -0.2815
@<TRIPOS>BOND
     1    26    27    1
     2    27    25    1
     3    25    24    1
     4    24    23    1
     5    23    15    1
     6    15    16   ar
     7    16    17   ar
     8    17     1    1
     9     1     2   am
    10     2     3    2
    11     2     4   am
    12     4     5    1
    13     5     6    1
    14     6     7    1
    15     7     8    1
    16     8     9   ar
    17     9    10   ar
    18    10    28    1
    19    28    29    1
    20    29    30    1
    21    30    31    1
    22    31    34    1
    23    34    35    1
    24    35    36    1
    25    35    37    1
    26    35    38    1
    27    31    32    1
    28    32    33    1
    29    10    11   ar
    30    11    39    1
    31    39    40    2
    32    11    12   ar
    33    12    13   ar
    34    17    18   ar
    35    18    19   ar
    36    19    20   ar
    37    20    21    1
    38    21    22    3
    39    20    15   ar
    40    13     4    1
    41    13     8   ar
    42    33    28    1
    43     1    14    1
@<TRIPOS>MOLECULE
*****
 40 43 0 0 0
SMALL
GASTEIGER

@<TRIPOS>ATOM
      1 N         139.8593  140.1030  156.7107 N.am    1  UNL1       -0.2531
      2 C         139.6256  140.1977  158.1893 C.2     1  UNL1        0.3135
      3 O         138.5124  141.0518  158.7195 O.2     1  UNL1       -0.2518
      4 N         140.5051  139.4381  159.1378 N.am    1  UNL1       -0.2282
      5 C         141.6183  138.5839  158.6076 C.3     1  UNL1        0.1015
      6 C         142.4978  137.8244  159.5561 C.3     1  UNL1        0.0268
      7 C         142.2641  137.9191  161.0347 C.3     1  UNL1        0.0310
      8 C         141.1509  138.7732  161.5649 C.ar    1  UNL1        0.0096
      9 C         140.9172  138.8679  163.0436 C.ar    1  UNL1       -0.0042
     10 C         139.8040  139.7221  163.5737 C.ar    1  UNL1       -0.0017
     11 CA        138.9245  140.4817  162.6253 C.ar    1  UNL1        0.1208
     12 N         139.1582  140.3870  161.1466 N.ar    1  UNL1       -0.2276
     13 C         140.2714  139.5328  160.6164 C.ar    1  UNL1        0.1345
     14 H         140.5899  139.5423  156.3627 H       1  UNL1        0.1578
     15 C         136.7092  141.1380  154.5299 C.ar    1  UNL1        0.1525
     16 C         137.5887  140.3785  155.4784 C.ar    1  UNL1        0.0721
     17 C         138.9798  140.8625  155.7622 C.ar    1  UNL1        0.1384
     18 N         139.4915  142.1060  155.0974 N.ar    1  UNL1       -0.2281
     19 C         138.6119  142.8655  154.1489 C.ar    1  UNL1        0.1136
     20 C         137.2208  142.3815  153.8652 C.ar    1  UNL1        0.1215
     21 C         136.3414  143.1410  152.9167 C.1     1  UNL1        0.1051
     22 N         135.4619  143.9006  151.9682 N.1     1  UNL1       -0.1907
     23 O         135.3181  140.6540  154.2462 O.3     1  UNL1       -0.4719
     24 C         134.2080  140.9561  155.2087 C.3     1  UNL1        0.2373
     25 C         133.4891  139.8356  155.9001 C.3     1  UNL1        0.1894
     26 C         133.1831  138.7666  158.2482 C.3     1  UNL1        0.1743
     27 O         134.0787  139.2128  157.1308 O.3     1  UNL1       -0.3471
     28 C         139.5703  139.8168  165.0524 C.3     1  UNL1        0.0267
     29 C         138.5545  138.9301  165.7094 C.3     1  UNL1        0.0218
     30 C         138.3208  139.0247  167.1881 C.3     1  UNL1        0.0727
     31 N         139.1029  140.0062  168.0097 N.3     1  UNL1       -0.2656
     32 C         140.1187  140.8930  167.3527 C.3     1  UNL1        0.0727
     33 C         140.3524  140.7983  165.8740 C.3     1  UNL1        0.0218
     34 C         138.8691  140.1008  169.4884 C.3     1  UNL1        0.1767
     35 C         139.9041  140.7311  170.3724 C.3     1  UNL1        0.4121
     36 F         140.9390  141.3614  171.2565 F       1  UNL1       -0.1685
     37 F         140.6842  139.4500  170.3726 F       1  UNL1       -0.1685
     38 F         139.1240  142.0123  170.3722 F       1  UNL1       -0.1685
     39 C         137.8113  141.3359  163.1555 C.2     1  UNL1        0.2529
     40 O         138.0268  142.8060  163.3614 O.2     1  UNL1       -0.2815
@<TRIPOS>BOND
     1    26    27    1
     2    27    25    1
     3    25    24    1
     4    24    23    1
     5    23    15    1
     6    15    16   ar
     7    16    17   ar
     8    17     1    1
     9     1     2   am
    10     2     3    2
    11     2     4   am
    12     4     5    1
    13     5     6    1
    14     6     7    1
    15     7     8    1
    16     8     9   ar
    17     9    10   ar
    18    10    28    1
    19    28    29    1
    20    29    30    1
    21    30    31    1
    22    31    34    1
    23    34    35    1
    24    35    36    1
    25    35    37    1
    26    35    38    1
    27    31    32    1
    28    32    33    1
    29    10    11   ar
    30    11    39    1
    31    39    40    2
    32    11    12   ar
    33    12    13   ar
    34    17    18   ar
    35    18    19   ar
    36    19    20   ar
    37    20    21    1
    38    21    22    3
    39    20    15   ar
    40    13     4    1
    41    13     8   ar
    42    33    28    1
    43     1    14    1
@<TRIPOS>MOLECULE
*****
 40 43 0 0 0
SMALL
GASTEIGER

@<TRIPOS>ATOM
      1 N         139.2269  139.6608  165.3605 N.am    1  UNL1       -0.2531
      2 C         140.0845  140.0825  164.2043 C.2     1  UNL1        0.3135
      3 O         141.2180  141.0406  164.4215 O.2     1  UNL1       -0.2518
      4 N         139.8085  139.5462  162.8309 N.am    1  UNL1       -0.2282
      5 C         138.6750  138.5881  162.6137 C.3     1  UNL1        0.1015
      6 C         138.3990  138.0518  161.2404 C.3     1  UNL1        0.0268
      7 C         139.2566  138.4735  160.0842 C.3     1  UNL1        0.0310
      8 C         140.3901  139.4315  160.3014 C.ar    1  UNL1        0.0096
      9 C         141.2477  139.8533  159.1452 C.ar    1  UNL1       -0.0042
     10 C         142.3812  140.8113  159.3624 C.ar    1  UNL1       -0.0017
     11 CA        142.6572  141.3477  160.7358 C.ar    1  UNL1        0.1208
     12 N         141.7996  140.9260  161.8920 N.ar    1  UNL1       -0.2276
     13 C         140.6661  139.9679  161.6747 C.ar    1  UNL1        0.1345
     14 H         138.4830  139.0320  165.2179 H       1  UNL1        0.1578
     15 C         139.0710  140.1527  169.2954 C.ar    1  UNL1        0.1525
     16 C         138.7950  139.6164  167.9221 C.ar    1  UNL1        0.0721
     17 C         139.5029  140.1972  166.7338 C.ar    1  UNL1        0.1384
     18 N         140.4867  141.3142  166.9191 N.ar    1  UNL1       -0.2281
     19 C         140.7626  141.8506  168.2925 C.ar    1  UNL1        0.1136
     20 C         140.0548  141.2698  169.4806 C.ar    1  UNL1        0.1215
     21 C         140.3307  141.8062  170.8540 C.1     1  UNL1        0.1051
     22 N         140.6067  142.3425  172.2274 N.1     1  UNL1       -0.1907
     23 O         138.3632  139.5720  170.4835 O.3     1  UNL1       -0.4719
     24 C         136.9289  139.1482  170.3688 C.3     1  UNL1        0.2373
     25 C         136.2642  138.4344  171.5084 C.3     1  UNL1        0.1894
     26 C         136.1496  136.2833  172.9609 C.3     1  UNL1        0.1743
     27 O         136.3909  136.9452  171.6367 O.3     1  UNL1       -0.3471
     28 C         143.2388  141.2330  158.2062 C.3     1  UNL1        0.0267
     29 C         144.3692  140.3578  157.7524 C.3     1  UNL1        0.0218
     30 C         145.2268  140.7795  156.5962 C.3     1  UNL1        0.0727
     31 N         144.9539  142.0765  155.8939 N.3     1  UNL1       -0.2656
     32 C         143.8234  142.9518  156.3477 C.3     1  UNL1        0.0727
     33 C         142.9659  142.5301  157.5039 C.3     1  UNL1        0.0218
     34 C         145.8115  142.4982  154.7377 C.3     1  UNL1        0.1767
     35 C         147.3060  142.4555  154.8576 C.3     1  UNL1        0.4121
     36 F         148.8006  142.4127  154.9776 F       1  UNL1       -0.1685
     37 F         147.2343  143.3397  156.0672 F       1  UNL1       -0.1685
     38 F         147.3778  141.5713  153.6481 F       1  UNL1       -0.1685
     39 C         143.7907  142.3058  160.9530 C.2     1  UNL1        0.2529
     40 O         144.6353  142.2008  162.1883 O.2     1  UNL1       -0.2815
@<TRIPOS>BOND
     1    26    27    1
     2    27    25    1
     3    25    24    1
     4    24    23    1
     5    23    15    1
     6    15    16   ar
     7    16    17   ar
     8    17     1    1
     9     1     2   am
    10     2     3    2
    11     2     4   am
    12     4     5    1
    13     5     6    1
    14     6     7    1
    15     7     8    1
    16     8     9   ar
    17     9    10   ar
    18    10    28    1
    19    28    29    1
    20    29    30    1
    21    30    31    1
    22    31    34    1
    23    34    35    1
    24    35    36    1
    25    35    37    1
    26    35    38    1
    27    31    32    1
    28    32    33    1
    29    10    11   ar
    30    11    39    1
    31    39    40    2
    32    11    12   ar
    33    12    13   ar
    34    17    18   ar
    35    18    19   ar
    36    19    20   ar
    37    20    21    1
    38    21    22    3
    39    20    15   ar
    40    13     4    1
    41    13     8   ar
    42    33    28    1
    43     1    14    1
@<TRIPOS>MOLECULE
*****
 40 43 0 0 0
SMALL
GASTEIGER

@<TRIPOS>ATOM
      1 N         141.6444  139.1490  164.1888 N.am    1  UNL1       -0.2531
      2 C         141.3744  140.1833  163.1365 C.2     1  UNL1        0.3135
      3 O         140.7754  141.5041  163.5194 O.2     1  UNL1       -0.2518
      4 N         141.7034  139.8967  161.7013 N.am    1  UNL1       -0.2282
      5 C         142.3023  138.5759  161.3184 C.3     1  UNL1        0.1015
      6 C         142.6313  138.2895  159.8833 C.3     1  UNL1        0.0268
      7 C         142.3612  139.3238  158.8310 C.3     1  UNL1        0.0310
      8 C         141.7622  140.6446  159.2139 C.ar    1  UNL1        0.0096
      9 C         141.4922  141.6789  158.1616 C.ar    1  UNL1       -0.0042
     10 C         140.8932  142.9997  158.5445 C.ar    1  UNL1       -0.0017
     11 CA        140.5643  143.2863  159.9797 C.ar    1  UNL1        0.1208
     12 N         140.8343  142.2519  161.0320 N.ar    1  UNL1       -0.2276
     13 C         141.4333  140.9311  160.6490 C.ar    1  UNL1        0.1345
     14 H         142.0376  138.2820  163.9374 H       1  UNL1        0.1578
     15 C         142.0417  140.2655  167.9763 C.ar    1  UNL1        0.1525
     16 C         142.3706  139.9790  166.5412 C.ar    1  UNL1        0.0721
     17 C         141.3155  139.4354  165.6239 C.ar    1  UNL1        0.1384
     18 N         139.9314  139.1783  166.1419 N.ar    1  UNL1       -0.2281
     19 C         139.6025  139.4649  167.5771 C.ar    1  UNL1        0.1136
     20 C         140.6577  140.0084  168.4943 C.ar    1  UNL1        0.1215
     21 C         140.3287  140.2949  169.9294 C.1     1  UNL1        0.1051
     22 N         139.9998  140.5814  171.3646 N.1     1  UNL1       -0.1907
     23 O         143.0968  140.8090  168.8934 O.3     1  UNL1       -0.4719
     24 C         143.2598  142.2915  169.0540 C.3     1  UNL1        0.2373
     25 C         142.9508  142.9418  170.3700 C.3     1  UNL1        0.1894
     26 C         140.6164  143.6943  169.5131 C.3     1  UNL1        0.1743
     27 O         141.7285  143.7992  170.5142 O.3     1  UNL1       -0.3471
     28 C         140.6232  144.0341  157.4923 C.3     1  UNL1        0.0267
     29 C         141.6255  145.1194  157.2328 C.3     1  UNL1        0.0218
     30 C         141.3554  146.1537  156.1805 C.3     1  UNL1        0.0727
     31 N         140.0831  146.1027  155.3878 N.3     1  UNL1       -0.2656
     32 C         139.0807  145.0173  155.6472 C.3     1  UNL1        0.0727
     33 C         139.3508  143.9830  156.6995 C.3     1  UNL1        0.0218
     34 C         139.8131  147.1371  154.3355 C.3     1  UNL1        0.1767
     35 C         139.6849  148.5815  154.7191 C.3     1  UNL1        0.4121
     36 F         139.5568  150.0259  155.1027 F       1  UNL1       -0.1685
     37 F         138.6726  148.2144  155.7633 F       1  UNL1       -0.1685
     38 F         140.6972  148.9486  153.6749 F       1  UNL1       -0.1685
     39 C         139.9653  144.6071  160.3626 C.2     1  UNL1        0.2529
     40 O         139.1133  144.7160  161.5925 O.2     1  UNL1       -0.2815
@<TRIPOS>BOND
     1    26    27    1
     2    27    25    1
     3    25    24    1
     4    24    23    1
     5    23    15    1
     6    15    16   ar
     7    16    17   ar
     8    17     1    1
     9     1     2   am
    10     2     3    2
    11     2     4   am
    12     4     5    1
    13     5     6    1
    14     6     7    1
    15     7     8    1
    16     8     9   ar
    17     9    10   ar
    18    10    28    1
    19    28    29    1
    20    29    30    1
    21    30    31    1
    22    31    34    1
    23    34    35    1
    24    35    36    1
    25    35    37    1
    26    35    38    1
    27    31    32    1
    28    32    33    1
    29    10    11   ar
    30    11    39    1
    31    39    40    2
    32    11    12   ar
    33    12    13   ar
    34    17    18   ar
    35    18    19   ar
    36    19    20   ar
    37    20    21    1
    38    21    22    3
    39    20    15   ar
    40    13     4    1
    41    13     8   ar
    42    33    28    1
    43     1    14    1
@<TRIPOS>MOLECULE
*****
 40 43 0 0 0
SMALL
GASTEIGER

@<TRIPOS>ATOM
      1 N         139.8521  143.2726  165.0206 N.am    1  UNL1       -0.2531
      2 C         140.7772  142.8970  163.9011 C.2     1  UNL1        0.3135
      3 O         141.6826  141.7096  164.0429 O.2     1  UNL1       -0.2518
      4 N         140.7968  143.7088  162.6399 N.am    1  UNL1       -0.2282
      5 C         139.8913  144.8962  162.4982 C.3     1  UNL1        0.1015
      6 C         139.9109  145.7080  161.2370 C.3     1  UNL1        0.0268
      7 C         140.8360  145.3324  160.1176 C.3     1  UNL1        0.0310
      8 C         141.7415  144.1450  160.2593 C.ar    1  UNL1        0.0096
      9 C         142.6666  143.7694  159.1399 C.ar    1  UNL1       -0.0042
     10 C         143.5721  142.5820  159.2817 C.ar    1  UNL1       -0.0017
     11 CA        143.5525  141.7701  160.5429 C.ar    1  UNL1        0.1208
     12 N         142.6274  142.1457  161.6623 N.ar    1  UNL1       -0.2276
     13 C         141.7219  143.3332  161.5205 C.ar    1  UNL1        0.1345
     14 H         139.2578  144.0520  164.9275 H       1  UNL1        0.1578
     15 C         140.3295  142.2380  168.8221 C.ar    1  UNL1        0.1525
     16 C         140.3492  143.0498  167.5609 C.ar    1  UNL1        0.0721
     17 C         139.8324  142.4608  166.2817 C.ar    1  UNL1        0.1384
     18 N         139.2961  141.0601  166.2638 N.ar    1  UNL1       -0.2281
     19 C         139.2765  140.2483  167.5251 C.ar    1  UNL1        0.1136
     20 C         139.7932  140.8373  168.8041 C.ar    1  UNL1        0.1215
     21 C         139.7735  140.0255  170.0653 C.1     1  UNL1        0.1051
     22 N         139.7539  139.2137  171.3265 N.1     1  UNL1       -0.1907
     23 O         140.8462  142.8269  170.1012 O.3     1  UNL1       -0.4719
     24 C         142.3174  142.8115  170.3935 C.3     1  UNL1        0.2373
     25 C         143.2557  142.0784  169.4812 C.3     1  UNL1        0.1894
     26 C         143.2467  139.8360  170.7933 C.3     1  UNL1        0.1743
     27 O         143.2927  140.5789  169.4910 O.3     1  UNL1       -0.3471
     28 C         144.4972  142.2063  158.1623 C.3     1  UNL1        0.0267
     29 C         145.8598  142.8272  158.0751 C.3     1  UNL1        0.0218
     30 C         146.7849  142.4515  156.9557 C.3     1  UNL1        0.0727
     31 N         146.3474  141.4551  155.9234 N.3     1  UNL1       -0.2656
     32 C         144.9846  140.8342  156.0106 C.3     1  UNL1        0.0727
     33 C         144.0595  141.2098  157.1300 C.3     1  UNL1        0.0218
     34 C         147.2725  141.0794  154.8040 C.3     1  UNL1        0.1767
     35 C         148.3218  142.0464  154.3417 C.3     1  UNL1        0.4121
     36 F         149.3712  143.0134  153.8795 F       1  UNL1       -0.1685
     37 F         147.2878  142.7894  153.5488 F       1  UNL1       -0.1685
     38 F         149.3558  141.3035  155.1347 F       1  UNL1       -0.1685
     39 C         144.4579  140.5827  160.6846 C.2     1  UNL1        0.2529
     40 O         143.9958  139.2289  160.2331 O.2     1  UNL1       -0.2815
@<TRIPOS>BOND
     1    26    27    1
     2    27    25    1
     3    25    24    1
     4    24    23    1
     5    23    15    1
     6    15    16   ar
     7    16    17   ar
     8    17     1    1
     9     1     2   am
    10     2     3    2
    11     2     4   am
    12     4     5    1
    13     5     6    1
    14     6     7    1
    15     7     8    1
    16     8     9   ar
    17     9    10   ar
    18    10    28    1
    19    28    29    1
    20    29    30    1
    21    30    31    1
    22    31    34    1
    23    34    35    1
    24    35    36    1
    25    35    37    1
    26    35    38    1
    27    31    32    1
    28    32    33    1
    29    10    11   ar
    30    11    39    1
    31    39    40    2
    32    11    12   ar
    33    12    13   ar
    34    17    18   ar
    35    18    19   ar
    36    19    20   ar
    37    20    21    1
    38    21    22    3
    39    20    15   ar
    40    13     4    1
    41    13     8   ar
    42    33    28    1
    43     1    14    1
@<TRIPOS>MOLECULE
*****
 40 43 0 0 0
SMALL
GASTEIGER

@<TRIPOS>ATOM
      1 N         138.9090  141.7225  157.3098 N.am    1  UNL1       -0.2531
      2 C         139.1957  141.3258  158.7277 C.2     1  UNL1        0.3135
      3 O         139.0329  139.8971  159.1544 O.2     1  UNL1       -0.2518
      4 N         139.6452  142.3580  159.7190 N.am    1  UNL1       -0.2282
      5 C         139.8080  143.7868  159.2924 C.3     1  UNL1        0.1015
      6 C         140.2575  144.8189  160.2836 C.3     1  UNL1        0.0268
      7 C         140.5442  144.4223  161.7015 C.3     1  UNL1        0.0310
      8 C         140.3814  142.9935  162.1282 C.ar    1  UNL1        0.0096
      9 C         140.6682  142.5969  163.5461 C.ar    1  UNL1       -0.0042
     10 C         140.5054  141.1681  163.9727 C.ar    1  UNL1       -0.0017
     11 CA        140.0559  140.1359  162.9815 C.ar    1  UNL1        0.1208
     12 N         139.7692  140.5325  161.5636 N.ar    1  UNL1       -0.2276
     13 C         139.9320  141.9614  161.1369 C.ar    1  UNL1        0.1345
     14 H         139.0158  142.6602  157.0298 H       1  UNL1        0.1578
     15 C         136.5799  139.6247  154.8758 C.ar    1  UNL1        0.1525
     16 C         137.0294  140.6568  155.8670 C.ar    1  UNL1        0.0721
     17 C         138.4595  140.6904  156.3186 C.ar    1  UNL1        0.1384
     18 N         139.4400  139.6917  155.7788 N.ar    1  UNL1       -0.2281
     19 C         138.9904  138.6596  154.7875 C.ar    1  UNL1        0.1136
     20 C         137.5604  138.6261  154.3360 C.ar    1  UNL1        0.1215
     21 C         137.1109  137.5939  153.3448 C.1     1  UNL1        0.1051
     22 N         136.6614  136.5617  152.3535 N.1     1  UNL1       -0.1907
     23 O         135.1499  139.5912  154.4242 O.3     1  UNL1       -0.4719
     24 C         134.1532  140.5416  155.0187 C.3     1  UNL1        0.2373
     25 C         133.2722  140.0952  156.1477 C.3     1  UNL1        0.1894
     26 C         133.1021  138.5838  158.2541 C.3     1  UNL1        0.1743
     27 O         133.8821  139.5390  157.4002 O.3     1  UNL1       -0.3471
     28 C         140.7922  140.7715  165.3906 C.3     1  UNL1        0.0267
     29 C         139.7136  140.8663  166.4287 C.3     1  UNL1        0.0218
     30 C         140.0003  140.4697  167.8466 C.3     1  UNL1        0.0727
     31 N         141.3656  139.9782  168.2265 N.3     1  UNL1       -0.2656
     32 C         142.4443  139.8833  167.1884 C.3     1  UNL1        0.0727
     33 C         142.1576  140.2799  165.7704 C.3     1  UNL1        0.0218
     34 C         141.6524  139.5815  169.6444 C.3     1  UNL1        0.1767
     35 C         141.8722  140.6359  170.6883 C.3     1  UNL1        0.4121
     36 F         142.0920  141.6904  171.7322 F       1  UNL1       -0.1685
     37 F         143.2865  140.8062  170.2185 F       1  UNL1       -0.1685
     38 F         140.4579  140.4657  171.1581 F       1  UNL1       -0.1685
     39 C         139.8931  138.7071  163.4081 C.2     1  UNL1        0.2529
     40 O         138.6099  138.2544  164.0394 O.2     1  UNL1       -0.2815
@<TRIPOS>BOND
     1    26    27    1
     2    27    25    1
     3    25    24    1
     4    24    23    1
     5    23    15    1
     6    15    16   ar
     7    16    17   ar
     8    17     1    1
     9     1     2   am
    10     2     3    2
    11     2     4   am
    12     4     5    1
    13     5     6    1
    14     6     7    1
    15     7     8    1
    16     8     9   ar
    17     9    10   ar
    18    10    28    1
    19    28    29    1
    20    29    30    1
    21    30    31    1
    22    31    34    1
    23    34    35    1
    24    35    36    1
    25    35    37    1
    26    35    38    1
    27    31    32    1
    28    32    33    1
    29    10    11   ar
    30    11    39    1
    31    39    40    2
    32    11    12   ar
    33    12    13   ar
    34    17    18   ar
    35    18    19   ar
    36    19    20   ar
    37    20    21    1
    38    21    22    3
    39    20    15   ar
    40    13     4    1
    41    13     8   ar
    42    33    28    1
    43     1    14    1
