@<TRIPOS>MOLECULE
*****
 40 43 0 0 0
SMALL
GASTEIGER

@<TRIPOS>ATOM
      1 N         139.3352  140.0052  160.8075 N.3     1  UNL1       -0.2711
      2 C         139.5353  139.6848  159.3559 C.3     1  UNL1        0.0933
      3 C         138.1622  140.2060  159.0514 C.3     1  UNL1        0.1035
      4 C         137.9621  140.5264  160.5031 C.3     1  UNL1        0.0933
      5 C         141.8234  139.5792  164.5327 C.3     1  UNL1        0.1071
      6 O         142.6584  138.5576  165.2463 O.3     1  UNL1       -0.3827
      7 C         141.1397  140.8801  164.2322 C.3     1  UNL1        0.0325
      8 C         140.3103  141.0221  162.9904 C.3     1  UNL1        0.0187
      9 C         140.1646  139.8632  162.0493 C.3     1  UNL1        0.0578
     10 C         140.8482  138.5623  162.3498 C.3     1  UNL1        0.0187
     11 C         141.6776  138.4203  163.5916 C.3     1  UNL1        0.0325
     12 H         143.0184  138.9450  166.0594 H       1  UNL1        0.2107
     13 C         142.4669  140.6606  168.2966 C.ar    1  UNL1        0.0477
     14 C         143.1306  141.9913  168.0997 C.ar    1  UNL1        0.0145
     15 C         143.3586  142.5179  166.7138 C.ar    1  UNL1        0.0010
     16 C         142.9229  141.7139  165.5248 C.ar    1  UNL1       -0.0020
     17 C         142.2591  140.3833  165.7217 C.ar    1  UNL1        0.0029
     18 C         142.0312  139.8566  167.1076 C.ar    1  UNL1        0.0125
     19 C         141.6648  141.0294  170.7401 C.3     1  UNL1        0.1122
     20 N         142.2389  140.1340  169.6825 N.pl3   1  UNL1       -0.3041
     21 C         142.5850  138.7119  170.0107 C.3     1  UNL1        0.1122
     22 N         137.3328  140.3481  157.8097 N.am    1  UNL1       -0.3018
     23 C         137.4052  141.6083  156.9995 C.2     1  UNL1        0.2426
     24 O         138.3069  142.7266  157.4310 O.2     1  UNL1       -0.2733
     25 H         136.7409  139.6141  157.5265 H       1  UNL1        0.1495
     26 C         136.5757  141.7503  155.7577 C.3     1  UNL1        0.1759
     27 N         135.0787  141.7361  155.8501 N.am    1  UNL1       -0.2931
     28 C         134.3398  140.4307  155.8532 C.2     1  UNL1        0.2462
     29 O         135.0981  139.1395  155.7640 O.2     1  UNL1       -0.2701
     30 H         134.5810  142.5835  155.9087 H       1  UNL1        0.1502
     31 C         132.8428  140.4164  155.9456 C.ar    1  UNL1        0.0533
     32 C         132.0437  141.5363  155.3477 C.ar    1  UNL1        0.0045
     33 C         130.5466  141.5220  155.4401 C.ar    1  UNL1        0.0001
     34 C         129.8486  140.3879  156.1303 C.ar    1  UNL1        0.0039
     35 C         130.6476  139.2680  156.7282 C.ar    1  UNL1        0.0716
     36 C         132.1447  139.2823  156.6358 C.ar    1  UNL1        0.0084
     37 C         129.9495  138.1339  157.4185 C.3     1  UNL1        0.4186
     38 F         129.2514  136.9998  158.1088 F       1  UNL1       -0.1659
     39 F         129.6946  137.4830  156.0913 F       1  UNL1       -0.1659
     40 F         130.2044  138.7848  158.7457 F       1  UNL1       -0.1659
@<TRIPOS>BOND
     1    19    20    1
     2    20    21    1
     3    20    13    1
     4    13    14   ar
     5    14    15   ar
     6    15    16   ar
     7    16    17   ar
     8    17     5    1
     9     5     6    1
    10     5     7    1
    11     7     8    1
    12     8     9    1
    13     9     1    1
    14     1     2    1
    15     2     3    1
    16     3    22    1
    17    22    23   am
    18    23    24    2
    19    23    26    1
    20    26    27    1
    21    27    28   am
    22    28    29    2
    23    28    31    1
    24    31    32   ar
    25    32    33   ar
    26    33    34   ar
    27    34    35   ar
    28    35    37    1
    29    37    38    1
    30    37    39    1
    31    37    40    1
    32    35    36   ar
    33     3     4    1
    34     9    10    1
    35    10    11    1
    36    17    18   ar
    37    18    13   ar
    38    11     5    1
    39     4     1    1
    40    36    31   ar
    41     6    12    1
    42    22    25    1
    43    27    30    1
@<TRIPOS>MOLECULE
*****
 40 43 0 0 0
SMALL
GASTEIGER

@<TRIPOS>ATOM
      1 N         140.0091  142.2436  160.6287 N.3     1  UNL1       -0.2711
      2 C         140.2397  142.6218  159.1955 C.3     1  UNL1        0.0933
      3 C         138.7735  142.4677  158.9189 C.3     1  UNL1        0.1035
      4 C         138.5430  142.0896  160.3520 C.3     1  UNL1        0.0933
      5 C         142.6300  141.7683  164.2556 C.3     1  UNL1        0.1071
      6 O         144.0410  142.0248  164.6952 O.3     1  UNL1       -0.3827
      7 C         141.1939  141.3383  164.3065 C.3     1  UNL1        0.0325
      8 C         140.3202  141.4968  163.0976 C.3     1  UNL1        0.0187
      9 C         140.8828  142.0852  161.8376 C.3     1  UNL1        0.0578
     10 C         142.3189  142.5151  161.7867 C.3     1  UNL1        0.0187
     11 C         143.1926  142.3567  162.9956 C.3     1  UNL1        0.0325
     12 H         144.1486  141.7434  165.6173 H       1  UNL1        0.2107
     13 C         142.1644  141.7197  168.1965 C.ar    1  UNL1        0.0477
     14 C         142.4126  140.2705  168.4934 C.ar    1  UNL1        0.0145
     15 C         142.7333  139.3206  167.3777 C.ar    1  UNL1        0.0010
     16 C         142.8058  139.8198  165.9652 C.ar    1  UNL1       -0.0020
     17 C         142.5576  141.2690  165.6682 C.ar    1  UNL1        0.0029
     18 C         142.2369  142.2189  166.7839 C.ar    1  UNL1        0.0125
     19 C         142.8652  142.9522  170.3736 C.3     1  UNL1        0.1122
     20 N         141.8437  142.6696  169.3122 N.pl3   1  UNL1       -0.3041
     21 C         140.5015  143.3371  169.3665 C.3     1  UNL1        0.1122
     22 N         137.8999  142.6262  157.7100 N.am    1  UNL1       -0.3018
     23 C         137.4499  141.4163  156.9461 C.2     1  UNL1        0.2426
     24 O         137.8735  140.0479  157.3910 O.2     1  UNL1       -0.2733
     25 H         137.6218  143.5243  157.4179 H       1  UNL1        0.1495
     26 C         136.5761  141.5747  155.7370 C.3     1  UNL1        0.1759
     27 N         135.0839  141.5935  155.8874 N.am    1  UNL1       -0.2931
     28 C         134.3071  140.3120  155.8205 C.2     1  UNL1        0.2462
     29 O         135.0228  139.0117  155.6033 O.2     1  UNL1       -0.2701
     30 H         134.6142  142.4469  156.0299 H       1  UNL1        0.1502
     31 C         132.8149  140.3308  155.9709 C.ar    1  UNL1        0.0533
     32 C         132.0153  141.4527  155.3774 C.ar    1  UNL1        0.0045
     33 C         130.5230  141.4714  155.5278 C.ar    1  UNL1        0.0001
     34 C         129.8302  140.3683  156.2716 C.ar    1  UNL1        0.0039
     35 C         130.6297  139.2465  156.8651 C.ar    1  UNL1        0.0716
     36 C         132.1220  139.2278  156.7147 C.ar    1  UNL1        0.0084
     37 C         129.9369  138.1434  157.6089 C.3     1  UNL1        0.4186
     38 F         129.2441  137.0403  158.3527 F       1  UNL1       -0.1659
     39 F         130.0174  138.9457  158.8737 F       1  UNL1       -0.1659
     40 F         129.8564  137.3411  156.3441 F       1  UNL1       -0.1659
@<TRIPOS>BOND
     1    19    20    1
     2    20    21    1
     3    20    13    1
     4    13    14   ar
     5    14    15   ar
     6    15    16   ar
     7    16    17   ar
     8    17     5    1
     9     5     6    1
    10     5     7    1
    11     7     8    1
    12     8     9    1
    13     9     1    1
    14     1     2    1
    15     2     3    1
    16     3    22    1
    17    22    23   am
    18    23    24    2
    19    23    26    1
    20    26    27    1
    21    27    28   am
    22    28    29    2
    23    28    31    1
    24    31    32   ar
    25    32    33   ar
    26    33    34   ar
    27    34    35   ar
    28    35    37    1
    29    37    38    1
    30    37    39    1
    31    37    40    1
    32    35    36   ar
    33     3     4    1
    34     9    10    1
    35    10    11    1
    36    17    18   ar
    37    18    13   ar
    38    11     5    1
    39     4     1    1
    40    36    31   ar
    41     6    12    1
    42    22    25    1
    43    27    30    1
@<TRIPOS>MOLECULE
*****
 40 43 0 0 0
SMALL
GASTEIGER

@<TRIPOS>ATOM
      1 N         142.6273  139.7175  159.2492 N.3     1  UNL1       -0.2711
      2 C         143.4397  140.1031  160.4497 C.3     1  UNL1        0.0933
      3 C         142.3283  140.9963  160.9152 C.3     1  UNL1        0.1035
      4 C         141.5158  140.6107  159.7147 C.3     1  UNL1        0.0933
      5 C         143.2615  137.0049  155.7152 C.3     1  UNL1        0.1071
      6 O         143.6886  137.0699  154.2788 O.3     1  UNL1       -0.3827
      7 C         142.7987  136.4361  157.0237 C.3     1  UNL1        0.0325
      8 C         142.5872  137.3403  158.2017 C.3     1  UNL1        0.0187
      9 C         142.8387  138.8133  158.0712 C.3     1  UNL1        0.0578
     10 C         143.3016  139.3821  156.7627 C.3     1  UNL1        0.0187
     11 C         143.5130  138.4779  155.5847 C.3     1  UNL1        0.0325
     12 H         143.6709  136.1790  153.8955 H       1  UNL1        0.2107
     13 C         143.8409  133.0788  155.7412 C.ar    1  UNL1        0.0477
     14 C         142.9522  132.6537  154.6102 C.ar    1  UNL1        0.0145
     15 C         142.1665  133.6789  153.8474 C.ar    1  UNL1        0.0010
     16 C         142.2697  135.1293  154.2158 C.ar    1  UNL1       -0.0020
     17 C         143.1584  135.5544  155.3468 C.ar    1  UNL1        0.0029
     18 C         143.9440  134.5292  156.1096 C.ar    1  UNL1        0.0125
     19 C         145.1366  132.3699  157.8786 C.3     1  UNL1        0.1122
     20 N         144.6265  132.0536  156.5039 N.pl3   1  UNL1       -0.3041
     21 C         144.9021  130.7122  155.8920 C.3     1  UNL1        0.1122
     22 N         142.1168  141.9004  162.0932 N.am    1  UNL1       -0.3018
     23 C         142.8009  143.2342  162.1472 C.2     1  UNL1        0.2426
     24 O         143.6964  143.6640  161.0232 O.2     1  UNL1       -0.2733
     25 H         141.5291  141.6185  162.8310 H       1  UNL1        0.1495
     26 C         142.5894  144.1385  163.3253 C.3     1  UNL1        0.1759
     27 N         142.6544  143.5840  164.7175 N.am    1  UNL1       -0.2931
     28 C         141.4874  142.8269  165.2785 C.2     1  UNL1        0.2462
     29 O         140.2553  142.6243  164.4473 O.2     1  UNL1       -0.2701
     30 H         143.4631  143.7170  165.2630 H       1  UNL1        0.1502
     31 C         141.5524  142.2725  166.6707 C.ar    1  UNL1        0.0533
     32 C         142.4696  141.1264  166.9795 C.ar    1  UNL1        0.0045
     33 C         142.5345  140.5720  168.3718 C.ar    1  UNL1        0.0001
     34 C         141.6823  141.1635  169.4552 C.ar    1  UNL1        0.0039
     35 C         140.7651  142.3096  169.1464 C.ar    1  UNL1        0.0716
     36 C         140.7002  142.8640  167.7541 C.ar    1  UNL1        0.0084
     37 C         139.9129  142.9011  170.2298 C.3     1  UNL1        0.4186
     38 F         139.0607  143.4927  171.3133 F       1  UNL1       -0.1659
     39 F         139.1591  141.6092  170.3422 F       1  UNL1       -0.1659
     40 F         140.6668  144.1931  170.1174 F       1  UNL1       -0.1659
@<TRIPOS>BOND
     1    19    20    1
     2    20    21    1
     3    20    13    1
     4    13    14   ar
     5    14    15   ar
     6    15    16   ar
     7    16    17   ar
     8    17     5    1
     9     5     6    1
    10     5     7    1
    11     7     8    1
    12     8     9    1
    13     9     1    1
    14     1     2    1
    15     2     3    1
    16     3    22    1
    17    22    23   am
    18    23    24    2
    19    23    26    1
    20    26    27    1
    21    27    28   am
    22    28    29    2
    23    28    31    1
    24    31    32   ar
    25    32    33   ar
    26    33    34   ar
    27    34    35   ar
    28    35    37    1
    29    37    38    1
    30    37    39    1
    31    37    40    1
    32    35    36   ar
    33     3     4    1
    34     9    10    1
    35    10    11    1
    36    17    18   ar
    37    18    13   ar
    38    11     5    1
    39     4     1    1
    40    36    31   ar
    41     6    12    1
    42    22    25    1
    43    27    30    1
@<TRIPOS>MOLECULE
*****
 40 43 0 0 0
SMALL
GASTEIGER

@<TRIPOS>ATOM
      1 N         142.9585  139.7526  159.1880 N.3     1  UNL1       -0.2711
      2 C         142.9111  141.2401  159.3747 C.3     1  UNL1        0.0933
      3 C         142.9322  141.0541  160.8629 C.3     1  UNL1        0.1035
      4 C         142.9796  139.5665  160.6762 C.3     1  UNL1        0.0933
      5 C         143.0142  136.9915  155.6351 C.3     1  UNL1        0.1071
      6 O         143.2253  137.0332  154.1506 O.3     1  UNL1       -0.3827
      7 C         142.7398  136.4455  157.0049 C.3     1  UNL1        0.0325
      8 C         142.7212  137.3659  158.1892 C.3     1  UNL1        0.0187
      9 C         142.9771  138.8322  158.0037 C.3     1  UNL1        0.0578
     10 C         143.2515  139.3782  156.6338 C.3     1  UNL1        0.0187
     11 C         143.2701  138.4578  155.4495 C.3     1  UNL1        0.0325
     12 H         143.1350  136.1389  153.7859 H       1  UNL1        0.2107
     13 C         143.5380  133.0577  155.6065 C.ar    1  UNL1        0.0477
     14 C         142.4666  132.6360  154.6451 C.ar    1  UNL1        0.0145
     15 C         141.5777  133.6662  154.0138 C.ar    1  UNL1        0.0010
     16 C         141.7602  135.1180  154.3437 C.ar    1  UNL1       -0.0020
     17 C         142.8316  135.5396  155.3051 C.ar    1  UNL1        0.0029
     18 C         143.7205  134.5095  155.9364 C.ar    1  UNL1        0.0125
     19 C         145.0423  132.2893  157.5805 C.3     1  UNL1        0.1122
     20 N         144.4269  132.0275  156.2378 N.pl3   1  UNL1       -0.3041
     21 C         144.7005  130.7356  155.5265 C.3     1  UNL1        0.1122
     22 N         142.9136  141.9744  162.0472 N.am    1  UNL1       -0.3018
     23 C         144.1890  142.2930  162.7695 C.2     1  UNL1        0.2426
     24 O         145.4830  141.6914  162.3076 O.2     1  UNL1       -0.2733
     25 H         142.0643  142.3694  162.3504 H       1  UNL1        0.1495
     26 C         144.1704  143.2134  163.9539 C.3     1  UNL1        0.1759
     27 N         143.6904  142.7140  165.2844 N.am    1  UNL1       -0.2931
     28 C         142.2212  142.5505  165.5386 C.2     1  UNL1        0.2462
     29 O         141.2319  142.8864  164.4622 O.2     1  UNL1       -0.2701
     30 H         144.3398  142.4935  165.9908 H       1  UNL1        0.1502
     31 C         141.7413  142.0510  166.8690 C.ar    1  UNL1        0.0533
     32 C         140.6581  142.7873  167.6003 C.ar    1  UNL1        0.0045
     33 C         140.1782  142.2878  168.9308 C.ar    1  UNL1        0.0001
     34 C         140.7814  141.0521  169.5300 C.ar    1  UNL1        0.0039
     35 C         141.8646  140.3158  168.7988 C.ar    1  UNL1        0.0716
     36 C         142.3445  140.8153  167.4683 C.ar    1  UNL1        0.0084
     37 C         142.4678  139.0801  169.3980 C.3     1  UNL1        0.4186
     38 F         143.0710  137.8444  169.9973 F       1  UNL1       -0.1659
     39 F         142.9463  138.6557  168.0413 F       1  UNL1       -0.1659
     40 F         141.9893  139.5045  170.7548 F       1  UNL1       -0.1659
@<TRIPOS>BOND
     1    19    20    1
     2    20    21    1
     3    20    13    1
     4    13    14   ar
     5    14    15   ar
     6    15    16   ar
     7    16    17   ar
     8    17     5    1
     9     5     6    1
    10     5     7    1
    11     7     8    1
    12     8     9    1
    13     9     1    1
    14     1     2    1
    15     2     3    1
    16     3    22    1
    17    22    23   am
    18    23    24    2
    19    23    26    1
    20    26    27    1
    21    27    28   am
    22    28    29    2
    23    28    31    1
    24    31    32   ar
    25    32    33   ar
    26    33    34   ar
    27    34    35   ar
    28    35    37    1
    29    37    38    1
    30    37    39    1
    31    37    40    1
    32    35    36   ar
    33     3     4    1
    34     9    10    1
    35    10    11    1
    36    17    18   ar
    37    18    13   ar
    38    11     5    1
    39     4     1    1
    40    36    31   ar
    41     6    12    1
    42    22    25    1
    43    27    30    1
@<TRIPOS>MOLECULE
*****
 40 43 0 0 0
SMALL
GASTEIGER

@<TRIPOS>ATOM
      1 N         142.9982  139.0611  161.0365 N.3     1  UNL1       -0.2711
      2 C         142.8307  139.5256  159.6202 C.3     1  UNL1        0.0933
      3 C         142.8681  138.1022  159.1488 C.3     1  UNL1        0.1035
      4 C         143.0357  137.6376  160.5652 C.3     1  UNL1        0.0933
      5 C         143.2742  141.0951  165.0411 C.3     1  UNL1        0.1071
      6 O         143.7567  142.3800  165.6464 O.3     1  UNL1       -0.3827
      7 C         142.6732  139.7249  164.9357 C.3     1  UNL1        0.0325
      8 C         142.5812  139.0468  163.6009 C.3     1  UNL1        0.0187
      9 C         143.0902  139.7391  162.3714 C.3     1  UNL1        0.0578
     10 C         143.6913  141.1094  162.4767 C.3     1  UNL1        0.0187
     11 C         143.7833  141.7874  163.8115 C.3     1  UNL1        0.0325
     12 H         143.5974  142.3665  166.6032 H       1  UNL1        0.2107
     13 C         142.2678  141.7573  168.8224 C.ar    1  UNL1        0.0477
     14 C         142.2498  140.3572  169.3603 C.ar    1  UNL1        0.0145
     15 C         142.5733  139.2030  168.4585 C.ar    1  UNL1        0.0010
     16 C         142.9148  139.4490  167.0187 C.ar    1  UNL1       -0.0020
     17 C         142.9328  140.8491  166.4809 C.ar    1  UNL1        0.0029
     18 C         142.6093  142.0032  167.3827 C.ar    1  UNL1        0.0125
     19 C         142.9485  143.3763  170.7369 C.3     1  UNL1        0.1122
     20 N         141.9443  142.9114  169.7243 N.pl3   1  UNL1       -0.3041
     21 C         140.6167  143.6006  169.6135 C.3     1  UNL1        0.1122
     22 N         142.7761  137.4241  157.8140 N.am    1  UNL1       -0.3018
     23 C         141.4475  137.2905  157.1306 C.2     1  UNL1        0.2426
     24 O         140.2109  137.8349  157.7820 O.2     1  UNL1       -0.2733
     25 H         143.5877  137.0668  157.3864 H       1  UNL1        0.1495
     26 C         141.3555  136.6124  155.7957 C.3     1  UNL1        0.1759
     27 N         141.4851  135.1211  155.7016 N.am    1  UNL1       -0.2931
     28 C         142.8388  134.4795  155.7787 C.2     1  UNL1        0.2462
     29 O         144.0629  135.3294  155.9500 O.2     1  UNL1       -0.2701
     30 H         140.6817  134.5633  155.5892 H       1  UNL1        0.1502
     31 C         142.9683  132.9881  155.6846 C.ar    1  UNL1        0.0533
     32 C         144.3097  132.3394  155.8574 C.ar    1  UNL1        0.0045
     33 C         144.4392  130.8480  155.7633 C.ar    1  UNL1        0.0001
     34 C         143.2274  130.0052  155.4963 C.ar    1  UNL1        0.0039
     35 C         141.8860  130.6539  155.3234 C.ar    1  UNL1        0.0716
     36 C         141.7565  132.1453  155.4175 C.ar    1  UNL1        0.0084
     37 C         140.6742  129.8112  155.0564 C.3     1  UNL1        0.4186
     38 F         139.4624  128.9684  154.7893 F       1  UNL1       -0.1659
     39 F         141.4998  128.5704  155.2257 F       1  UNL1       -0.1659
     40 F         139.8486  131.0520  154.8870 F       1  UNL1       -0.1659
@<TRIPOS>BOND
     1    19    20    1
     2    20    21    1
     3    20    13    1
     4    13    14   ar
     5    14    15   ar
     6    15    16   ar
     7    16    17   ar
     8    17     5    1
     9     5     6    1
    10     5     7    1
    11     7     8    1
    12     8     9    1
    13     9     1    1
    14     1     2    1
    15     2     3    1
    16     3    22    1
    17    22    23   am
    18    23    24    2
    19    23    26    1
    20    26    27    1
    21    27    28   am
    22    28    29    2
    23    28    31    1
    24    31    32   ar
    25    32    33   ar
    26    33    34   ar
    27    34    35   ar
    28    35    37    1
    29    37    38    1
    30    37    39    1
    31    37    40    1
    32    35    36   ar
    33     3     4    1
    34     9    10    1
    35    10    11    1
    36    17    18   ar
    37    18    13   ar
    38    11     5    1
    39     4     1    1
    40    36    31   ar
    41     6    12    1
    42    22    25    1
    43    27    30    1
@<TRIPOS>MOLECULE
*****
 40 43 0 0 0
SMALL
GASTEIGER

@<TRIPOS>ATOM
      1 N         140.2418  139.6610  160.8402 N.3     1  UNL1       -0.2711
      2 C         139.4605  138.6368  160.0717 C.3     1  UNL1        0.0933
      3 C         140.4764  138.6889  158.9694 C.3     1  UNL1        0.1035
      4 C         141.2576  139.7131  159.7379 C.3     1  UNL1        0.0933
      5 C         139.7440  141.7231  164.8089 C.3     1  UNL1        0.1071
      6 O         139.4079  143.0739  165.3678 O.3     1  UNL1       -0.3827
      7 C         140.1086  140.2689  164.7598 C.3     1  UNL1        0.0325
      8 C         140.2745  139.5816  163.4369 C.3     1  UNL1        0.0187
      9 C         140.0758  140.3484  162.1631 C.3     1  UNL1        0.0578
     10 C         139.7113  141.8025  162.2122 C.3     1  UNL1        0.0187
     11 C         139.5453  142.4899  163.5351 C.3     1  UNL1        0.0325
     12 H         139.4223  143.0356  166.3369 H       1  UNL1        0.2107
     13 C         140.5350  142.1211  168.6775 C.ar    1  UNL1        0.0477
     14 C         139.9899  140.8302  169.2125 C.ar    1  UNL1        0.0145
     15 C         139.3629  139.8368  168.2797 C.ar    1  UNL1        0.0010
     16 C         139.2809  140.1345  166.8118 C.ar    1  UNL1       -0.0020
     17 C         139.8260  141.4254  166.2768 C.ar    1  UNL1        0.0029
     18 C         140.4530  142.4187  167.2096 C.ar    1  UNL1        0.0125
     19 C         142.5518  142.8854  170.1260 C.3     1  UNL1        0.1122
     20 N         141.1620  143.1144  169.6103 N.pl3   1  UNL1       -0.3041
     21 C         140.3992  144.3368  170.0274 C.3     1  UNL1        0.1122
     22 N         140.6423  138.0015  157.6466 N.am    1  UNL1       -0.3018
     23 C         139.6553  138.2480  156.5443 C.2     1  UNL1        0.2426
     24 O         138.5024  139.1818  156.7648 O.2     1  UNL1       -0.2733
     25 H         141.3990  137.3886  157.5018 H       1  UNL1        0.1495
     26 C         139.8213  137.5605  155.2214 C.3     1  UNL1        0.1759
     27 N         140.4233  136.1881  155.1596 N.am    1  UNL1       -0.2931
     28 C         141.9083  136.0143  155.2807 C.2     1  UNL1        0.2462
     29 O         142.7912  137.2131  155.4635 O.2     1  UNL1       -0.2701
     30 H         139.8438  135.4013  155.0396 H       1  UNL1        0.1502
     31 C         142.5103  134.6419  155.2190 C.ar    1  UNL1        0.0533
     32 C         142.1724  133.7252  154.0808 C.ar    1  UNL1        0.0045
     33 C         142.7745  132.3527  154.0191 C.ar    1  UNL1        0.0001
     34 C         143.7144  131.8969  155.0956 C.ar    1  UNL1        0.0039
     35 C         144.0523  132.8136  156.2338 C.ar    1  UNL1        0.0716
     36 C         143.4502  134.1861  156.2955 C.ar    1  UNL1        0.0084
     37 C         144.9922  132.3578  157.3103 C.3     1  UNL1        0.4186
     38 F         145.9321  131.9020  158.3868 F       1  UNL1       -0.1659
     39 F         145.6038  131.3724  156.3590 F       1  UNL1       -0.1659
     40 F         144.3806  133.3432  158.2616 F       1  UNL1       -0.1659
@<TRIPOS>BOND
     1    19    20    1
     2    20    21    1
     3    20    13    1
     4    13    14   ar
     5    14    15   ar
     6    15    16   ar
     7    16    17   ar
     8    17     5    1
     9     5     6    1
    10     5     7    1
    11     7     8    1
    12     8     9    1
    13     9     1    1
    14     1     2    1
    15     2     3    1
    16     3    22    1
    17    22    23   am
    18    23    24    2
    19    23    26    1
    20    26    27    1
    21    27    28   am
    22    28    29    2
    23    28    31    1
    24    31    32   ar
    25    32    33   ar
    26    33    34   ar
    27    34    35   ar
    28    35    37    1
    29    37    38    1
    30    37    39    1
    31    37    40    1
    32    35    36   ar
    33     3     4    1
    34     9    10    1
    35    10    11    1
    36    17    18   ar
    37    18    13   ar
    38    11     5    1
    39     4     1    1
    40    36    31   ar
    41     6    12    1
    42    22    25    1
    43    27    30    1
@<TRIPOS>MOLECULE
*****
 40 43 0 0 0
SMALL
GASTEIGER

@<TRIPOS>ATOM
      1 N         140.5261  139.1583  159.6624 N.3     1  UNL1       -0.2711
      2 C         141.8427  138.4498  159.5411 C.3     1  UNL1        0.0933
      3 C         141.5327  138.1184  158.1115 C.3     1  UNL1        0.1035
      4 C         140.2162  138.8270  158.2327 C.3     1  UNL1        0.0933
      5 C         138.3910  141.3643  162.9524 C.3     1  UNL1        0.1071
      6 O         137.0209  141.4912  163.5499 O.3     1  UNL1       -0.3827
      7 C         139.8580  141.5847  162.7310 C.3     1  UNL1        0.0325
      8 C         140.5698  140.8494  161.6343 C.3     1  UNL1        0.0187
      9 C         139.8144  139.8936  160.7591 C.3     1  UNL1        0.0578
     10 C         138.3473  139.6733  160.9805 C.3     1  UNL1        0.0187
     11 C         137.6356  140.4086  162.0772 C.3     1  UNL1        0.0325
     12 H         137.0460  142.1238  164.2848 H       1  UNL1        0.2107
     13 C         139.9179  143.0308  166.2145 C.ar    1  UNL1        0.0477
     14 C         139.2296  144.3635  166.2007 C.ar    1  UNL1        0.0145
     15 C         138.2618  144.6965  165.1041 C.ar    1  UNL1        0.0010
     16 C         137.9823  143.6968  164.0214 C.ar    1  UNL1       -0.0020
     17 C         138.6705  142.3641  164.0352 C.ar    1  UNL1        0.0029
     18 C         139.6383  142.0311  165.1318 C.ar    1  UNL1        0.0125
     19 C         140.5288  142.9854  168.7393 C.3     1  UNL1        0.1122
     20 N         140.8857  142.6979  167.3111 N.pl3   1  UNL1       -0.3041
     21 C         142.2104  142.0773  166.9794 C.3     1  UNL1        0.1122
     22 N         142.2445  137.3831  157.0148 N.am    1  UNL1       -0.3018
     23 C         143.4539  137.9896  156.3673 C.2     1  UNL1        0.2426
     24 O         143.9518  139.3314  156.8164 O.2     1  UNL1       -0.2733
     25 H         141.9178  136.5024  156.7200 H       1  UNL1        0.1495
     26 C         144.1657  137.2542  155.2705 C.3     1  UNL1        0.1759
     27 N         144.3209  135.7641  155.3446 N.am    1  UNL1       -0.2931
     28 C         143.1619  134.8719  155.0117 C.2     1  UNL1        0.2462
     29 O         141.8478  135.4699  154.6049 O.2     1  UNL1       -0.2701
     30 H         145.1834  135.3717  155.6116 H       1  UNL1        0.1502
     31 C         143.3171  133.3818  155.0858 C.ar    1  UNL1        0.0533
     32 C         142.8430  132.5212  153.9524 C.ar    1  UNL1        0.0045
     33 C         142.9982  131.0311  154.0265 C.ar    1  UNL1        0.0001
     34 C         143.6274  130.4016  155.2339 C.ar    1  UNL1        0.0039
     35 C         144.1015  131.2623  156.3672 C.ar    1  UNL1        0.0716
     36 C         143.9463  132.7524  156.2931 C.ar    1  UNL1        0.0084
     37 C         144.7308  130.6328  157.5746 C.3     1  UNL1        0.4186
     38 F         145.3601  130.0033  158.7820 F       1  UNL1       -0.1659
     39 F         145.6523  131.8088  157.7075 F       1  UNL1       -0.1659
     40 F         143.8093  129.4567  157.4418 F       1  UNL1       -0.1659
@<TRIPOS>BOND
     1    19    20    1
     2    20    21    1
     3    20    13    1
     4    13    14   ar
     5    14    15   ar
     6    15    16   ar
     7    16    17   ar
     8    17     5    1
     9     5     6    1
    10     5     7    1
    11     7     8    1
    12     8     9    1
    13     9     1    1
    14     1     2    1
    15     2     3    1
    16     3    22    1
    17    22    23   am
    18    23    24    2
    19    23    26    1
    20    26    27    1
    21    27    28   am
    22    28    29    2
    23    28    31    1
    24    31    32   ar
    25    32    33   ar
    26    33    34   ar
    27    34    35   ar
    28    35    37    1
    29    37    38    1
    30    37    39    1
    31    37    40    1
    32    35    36   ar
    33     3     4    1
    34     9    10    1
    35    10    11    1
    36    17    18   ar
    37    18    13   ar
    38    11     5    1
    39     4     1    1
    40    36    31   ar
    41     6    12    1
    42    22    25    1
    43    27    30    1
@<TRIPOS>MOLECULE
*****
 40 43 0 0 0
SMALL
GASTEIGER

@<TRIPOS>ATOM
      1 N         141.7035  144.3929  160.9946 N.3     1  UNL1       -0.2711
      2 C         141.9917  144.0733  159.5577 C.3     1  UNL1        0.0933
      3 C         140.9261  145.0381  159.1293 C.3     1  UNL1        0.1035
      4 C         140.6379  145.3577  160.5662 C.3     1  UNL1        0.0933
      5 C         143.3525  143.0242  164.9515 C.3     1  UNL1        0.1071
      6 O         144.4075  143.4011  165.9490 O.3     1  UNL1       -0.3827
      7 C         142.2236  142.2737  164.3095 C.3     1  UNL1        0.0325
      8 C         141.6739  142.7299  162.9905 C.3     1  UNL1        0.0187
      9 C         142.2532  143.9367  162.3136 C.3     1  UNL1        0.0578
     10 C         143.3821  144.6872  162.9556 C.3     1  UNL1        0.0187
     11 C         143.9318  144.2310  164.2746 C.3     1  UNL1        0.0325
     12 H         144.3898  142.7758  166.6903 H       1  UNL1        0.2107
     13 C         142.7309  141.2371  168.4401 C.ar    1  UNL1        0.0477
     14 C         142.7140  139.7968  168.0217 C.ar    1  UNL1        0.0145
     15 C         142.9099  139.4322  166.5799 C.ar    1  UNL1        0.0010
     16 C         143.1227  140.5080  165.5565 C.ar    1  UNL1       -0.0020
     17 C         143.1396  141.9483  165.9749 C.ar    1  UNL1        0.0029
     18 C         142.9438  142.3129  167.4167 C.ar    1  UNL1        0.0125
     19 C         142.1779  140.5420  170.8815 C.3     1  UNL1        0.1122
     20 N         142.5350  141.6017  169.8818 N.pl3   1  UNL1       -0.3041
     21 C         142.6963  143.0259  170.3239 C.3     1  UNL1        0.1122
     22 N         140.3764  145.4943  157.8103 N.am    1  UNL1       -0.3018
     23 C         139.4909  144.5844  157.0117 C.2     1  UNL1        0.2426
     24 O         139.1550  143.2182  157.5320 O.2     1  UNL1       -0.2733
     25 H         140.5968  146.3909  157.4688 H       1  UNL1        0.1495
     26 C         138.9412  145.0406  155.6926 C.3     1  UNL1        0.1759
     27 N         139.0592  146.4803  155.2885 N.am    1  UNL1       -0.2931
     28 C         140.0628  146.8882  154.2511 C.2     1  UNL1        0.2462
     29 O         140.9485  145.8564  153.6178 O.2     1  UNL1       -0.2701
     30 H         138.4779  147.1574  155.7042 H       1  UNL1        0.1502
     31 C         140.1808  148.3279  153.8470 C.ar    1  UNL1        0.0533
     32 C         141.0029  148.7062  152.6507 C.ar    1  UNL1        0.0045
     33 C         141.1209  150.1459  152.2467 C.ar    1  UNL1        0.0001
     34 C         140.4168  151.2074  153.0388 C.ar    1  UNL1        0.0039
     35 C         139.5947  150.8291  154.2351 C.ar    1  UNL1        0.0716
     36 C         139.4767  149.3894  154.6392 C.ar    1  UNL1        0.0084
     37 C         138.8906  151.8906  155.0273 C.3     1  UNL1        0.4186
     38 F         138.1865  152.9521  155.8194 F       1  UNL1       -0.1659
     39 F         138.2485  152.4017  153.7717 F       1  UNL1       -0.1659
     40 F         139.5327  151.3795  156.2829 F       1  UNL1       -0.1659
@<TRIPOS>BOND
     1    19    20    1
     2    20    21    1
     3    20    13    1
     4    13    14   ar
     5    14    15   ar
     6    15    16   ar
     7    16    17   ar
     8    17     5    1
     9     5     6    1
    10     5     7    1
    11     7     8    1
    12     8     9    1
    13     9     1    1
    14     1     2    1
    15     2     3    1
    16     3    22    1
    17    22    23   am
    18    23    24    2
    19    23    26    1
    20    26    27    1
    21    27    28   am
    22    28    29    2
    23    28    31    1
    24    31    32   ar
    25    32    33   ar
    26    33    34   ar
    27    34    35   ar
    28    35    37    1
    29    37    38    1
    30    37    39    1
    31    37    40    1
    32    35    36   ar
    33     3     4    1
    34     9    10    1
    35    10    11    1
    36    17    18   ar
    37    18    13   ar
    38    11     5    1
    39     4     1    1
    40    36    31   ar
    41     6    12    1
    42    22    25    1
    43    27    30    1
@<TRIPOS>MOLECULE
*****
 40 43 0 0 0
SMALL
GASTEIGER

@<TRIPOS>ATOM
      1 N         139.1777  139.9656  160.7132 N.3     1  UNL1       -0.2711
      2 C         137.7271  140.1145  160.3615 C.3     1  UNL1        0.0933
      3 C         138.0837  140.1492  158.9050 C.3     1  UNL1        0.1035
      4 C         139.5343  140.0003  159.2567 C.3     1  UNL1        0.0933
      5 C         141.4982  139.5764  164.5490 C.3     1  UNL1        0.1071
      6 O         142.1028  138.5185  165.4239 O.3     1  UNL1       -0.3827
      7 C         141.0953  140.9325  164.0505 C.3     1  UNL1        0.0325
      8 C         140.3218  141.0623  162.7719 C.3     1  UNL1        0.0187
      9 C         139.9512  139.8359  161.9918 C.3     1  UNL1        0.0578
     10 C         140.3541  138.4797  162.4902 C.3     1  UNL1        0.0187
     11 C         141.1277  138.3500  163.7688 C.3     1  UNL1        0.0325
     12 H         142.5276  138.9361  166.1895 H       1  UNL1        0.2107
     13 C         142.4979  140.8987  168.1549 C.ar    1  UNL1        0.0477
     14 C         143.2398  142.1533  167.8011 C.ar    1  UNL1        0.0145
     15 C         143.4013  142.5491  166.3632 C.ar    1  UNL1        0.0010
     16 C         142.8208  141.6901  165.2792 C.ar    1  UNL1       -0.0020
     17 C         142.0788  140.4354  165.6330 C.ar    1  UNL1        0.0029
     18 C         141.9174  140.0397  167.0708 C.ar    1  UNL1        0.0125
     19 C         142.4068  139.0569  169.9851 C.3     1  UNL1        0.1122
     20 N         142.3364  140.5029  169.5927 N.pl3   1  UNL1       -0.3041
     21 C         142.1045  141.5532  170.6382 C.3     1  UNL1        0.1122
     22 N         137.3102  140.2789  157.6264 N.am    1  UNL1       -0.3018
     23 C         137.1535  141.6223  156.9777 C.2     1  UNL1        0.2426
     24 O         137.7703  142.8359  157.6074 O.2     1  UNL1       -0.2733
     25 H         136.9053  139.4824  157.2130 H       1  UNL1        0.1495
     26 C         136.3799  141.7520  155.6990 C.3     1  UNL1        0.1759
     27 N         134.8811  141.8003  155.7308 N.am    1  UNL1       -0.2931
     28 C         134.0939  140.5372  155.9177 C.2     1  UNL1        0.2462
     29 O         134.8055  139.2259  156.0728 O.2     1  UNL1       -0.2701
     30 H         134.4140  142.6609  155.6290 H       1  UNL1        0.1502
     31 C         132.5950  140.5854  155.9496 C.ar    1  UNL1        0.0533
     32 C         131.8267  139.5391  156.7012 C.ar    1  UNL1        0.0045
     33 C         130.3278  139.5874  156.7330 C.ar    1  UNL1        0.0001
     34 C         129.5972  140.6820  156.0132 C.ar    1  UNL1        0.0039
     35 C         130.3655  141.7283  155.2616 C.ar    1  UNL1        0.0716
     36 C         131.8644  141.6800  155.2298 C.ar    1  UNL1        0.0084
     37 C         129.6349  142.8229  154.5418 C.3     1  UNL1        0.4186
     38 F         128.9043  143.9175  153.8221 F       1  UNL1       -0.1659
     39 F         130.2404  143.8359  155.4677 F       1  UNL1       -0.1659
     40 F         129.0294  141.8099  153.6159 F       1  UNL1       -0.1659
@<TRIPOS>BOND
     1    19    20    1
     2    20    21    1
     3    20    13    1
     4    13    14   ar
     5    14    15   ar
     6    15    16   ar
     7    16    17   ar
     8    17     5    1
     9     5     6    1
    10     5     7    1
    11     7     8    1
    12     8     9    1
    13     9     1    1
    14     1     2    1
    15     2     3    1
    16     3    22    1
    17    22    23   am
    18    23    24    2
    19    23    26    1
    20    26    27    1
    21    27    28   am
    22    28    29    2
    23    28    31    1
    24    31    32   ar
    25    32    33   ar
    26    33    34   ar
    27    34    35   ar
    28    35    37    1
    29    37    38    1
    30    37    39    1
    31    37    40    1
    32    35    36   ar
    33     3     4    1
    34     9    10    1
    35    10    11    1
    36    17    18   ar
    37    18    13   ar
    38    11     5    1
    39     4     1    1
    40    36    31   ar
    41     6    12    1
    42    22    25    1
    43    27    30    1
