@<TRIPOS>MOLECULE
*****
 33 37 0 0 0
SMALL
GASTEIGER

@<TRIPOS>ATOM
      1 C         142.4906  141.0991  159.1244 C.ar    1  UNL1        0.0681
      2 C         143.5263  140.9047  158.0569 C.ar    1  UNL1        0.0208
      3 C         143.2774  139.9377  156.9377 C.ar    1  UNL1        0.0384
      4 C         141.9928  139.1650  156.8859 C.ar    1  UNL1        0.1385
      5 C         140.9571  139.3594  157.9534 C.ar    1  UNL1        0.0384
      6 C         141.2060  140.3265  159.0727 C.ar    1  UNL1        0.0208
      7 C         141.6122  143.9556  158.8618 C.3     1  UNL1        0.0723
      8 C         142.3004  143.4945  160.1124 C.ar    1  UNL1        0.1268
      9 N         142.5493  144.4616  161.2316 N.ar    1  UNL1       -0.2318
     10 C         143.2374  144.0005  162.4822 C.ar    1  UNL1        0.0871
     11 C         143.4863  144.9677  163.6014 C.ar    1  UNL1        0.0193
     12 C         144.1744  144.5066  164.8519 C.ar    1  UNL1        0.0015
     13 C         144.6136  143.0783  164.9833 C.ar    1  UNL1        0.0041
     14 C         144.3647  142.1112  163.8641 C.ar    1  UNL1        0.0775
     15 C         143.6766  142.5723  162.6135 C.ar    1  UNL1        0.0781
     16 C         143.4276  141.6052  161.4942 C.ar    1  UNL1        0.2669
     17 O         143.8668  140.1769  161.6256 O.2     1  UNL1       -0.2666
     18 N         142.7395  142.0663  160.2437 N.ar    1  UNL1       -0.2626
     19 C         144.8038  140.6829  163.9954 C.3     1  UNL1        0.4188
     20 F         145.2430  139.2547  164.1267 F       1  UNL1       -0.1659
     21 F         146.1434  141.0423  163.4239 F       1  UNL1       -0.1659
     22 F         143.4643  140.3236  164.5668 F       1  UNL1       -0.1659
     23 O         141.7439  138.1978  155.7666 O.3     1  UNL1       -0.4791
     24 C         142.3366  136.8209  155.8195 C.3     1  UNL1        0.1687
     25 C         142.4642  136.0106  154.5636 C.3     1  UNL1        0.0609
     26 C         143.0569  134.6337  154.6164 C.3     1  UNL1        0.0758
     27 N         143.5220  134.0671  155.9251 N.3     1  UNL1       -0.2737
     28 C         143.3944  134.8774  157.1809 C.3     1  UNL1        0.0758
     29 C         142.8017  136.2543  157.1281 C.3     1  UNL1        0.0609
     30 C         144.1147  132.6902  155.9779 C.3     1  UNL1        0.0575
     31 C         145.1804  132.0248  156.7976 C.3     1  UNL1        0.0160
     32 C         144.9529  130.7429  156.0526 C.3     1  UNL1        0.0028
     33 C         143.8874  131.4082  155.2330 C.3     1  UNL1        0.0160
@<TRIPOS>BOND
     1     7     8    1
     2     8     9   ar
     3     9    10   ar
     4    10    11   ar
     5    11    12   ar
     6    12    13   ar
     7    13    14   ar
     8    14    19    1
     9    19    20    1
    10    19    21    1
    11    19    22    1
    12    14    15   ar
    13    15    16   ar
    14    16    17    2
    15    16    18   ar
    16    18     1    1
    17     1     2   ar
    18     2     3   ar
    19     3     4   ar
    20     4    23    1
    21    23    24    1
    22    24    25    1
    23    25    26    1
    24    26    27    1
    25    27    30    1
    26    30    31    1
    27    31    32    1
    28    32    33    1
    29    27    28    1
    30    28    29    1
    31     4     5   ar
    32     5     6   ar
    33    18     8   ar
    34     6     1   ar
    35    15    10   ar
    36    29    24    1
    37    33    30    1
@<TRIPOS>MOLECULE
*****
 33 37 0 0 0
SMALL
GASTEIGER

@<TRIPOS>ATOM
      1 C         140.9448  139.2760  160.3033 C.ar    1  UNL1        0.0681
      2 C         142.1110  138.4389  160.7383 C.ar    1  UNL1        0.0208
      3 C         142.9084  137.6775  159.7213 C.ar    1  UNL1        0.0384
      4 C         142.5397  137.7533  158.2693 C.ar    1  UNL1        0.1385
      5 C         141.3736  138.5904  157.8343 C.ar    1  UNL1        0.0384
      6 C         140.5761  139.3518  158.8513 C.ar    1  UNL1        0.0208
      7 C         138.5025  138.0371  161.5281 C.3     1  UNL1        0.0723
      8 C         138.9262  139.4180  161.9327 C.ar    1  UNL1        0.1268
      9 N         138.1287  140.1793  162.9498 N.ar    1  UNL1       -0.2318
     10 C         138.5524  141.5602  163.3544 C.ar    1  UNL1        0.0871
     11 C         137.7549  142.3216  164.3714 C.ar    1  UNL1        0.0193
     12 C         138.1786  143.7024  164.7760 C.ar    1  UNL1        0.0015
     13 C         139.3998  144.3219  164.1636 C.ar    1  UNL1        0.0041
     14 C         140.1972  143.5606  163.1466 C.ar    1  UNL1        0.0775
     15 C         139.7735  142.1797  162.7420 C.ar    1  UNL1        0.0781
     16 C         140.5710  141.4183  161.7249 C.ar    1  UNL1        0.2669
     17 O         141.7922  142.0378  161.1125 O.2     1  UNL1       -0.2666
     18 N         140.1473  140.0375  161.3203 N.ar    1  UNL1       -0.2626
     19 C         141.4184  144.1801  162.5342 C.3     1  UNL1        0.4188
     20 F         142.6395  144.7995  161.9218 F       1  UNL1       -0.1659
     21 F         142.2611  143.6068  163.6347 F       1  UNL1       -0.1659
     22 F         140.5756  144.7533  161.4337 F       1  UNL1       -0.1659
     23 O         143.3372  136.9918  157.2523 O.3     1  UNL1       -0.4791
     24 C         142.8635  135.6493  156.7798 C.3     1  UNL1        0.1687
     25 C         141.8132  135.5574  155.7128 C.3     1  UNL1        0.0609
     26 C         141.3395  134.2148  155.2404 C.3     1  UNL1        0.0758
     27 N         141.9162  132.9642  155.8350 N.3     1  UNL1       -0.2737
     28 C         142.9665  133.0561  156.9019 C.3     1  UNL1        0.0758
     29 C         143.4401  134.3987  157.3743 C.3     1  UNL1        0.0609
     30 C         141.4425  131.6216  155.3625 C.3     1  UNL1        0.0575
     31 C         141.9877  130.2252  155.4165 C.3     1  UNL1        0.0160
     32 C         140.7726  129.7230  154.6944 C.3     1  UNL1        0.0028
     33 C         140.2275  131.1193  154.6405 C.3     1  UNL1        0.0160
@<TRIPOS>BOND
     1     7     8    1
     2     8     9   ar
     3     9    10   ar
     4    10    11   ar
     5    11    12   ar
     6    12    13   ar
     7    13    14   ar
     8    14    19    1
     9    19    20    1
    10    19    21    1
    11    19    22    1
    12    14    15   ar
    13    15    16   ar
    14    16    17    2
    15    16    18   ar
    16    18     1    1
    17     1     2   ar
    18     2     3   ar
    19     3     4   ar
    20     4    23    1
    21    23    24    1
    22    24    25    1
    23    25    26    1
    24    26    27    1
    25    27    30    1
    26    30    31    1
    27    31    32    1
    28    32    33    1
    29    27    28    1
    30    28    29    1
    31     4     5   ar
    32     5     6   ar
    33    18     8   ar
    34     6     1   ar
    35    15    10   ar
    36    29    24    1
    37    33    30    1
@<TRIPOS>MOLECULE
*****
 33 37 0 0 0
SMALL
GASTEIGER

@<TRIPOS>ATOM
      1 C         142.0992  138.5835  159.9702 C.ar    1  UNL1        0.0681
      2 C         143.2245  139.5754  159.9728 C.ar    1  UNL1        0.0208
      3 C         144.0236  139.7997  161.2222 C.ar    1  UNL1        0.0384
      4 C         143.6974  139.0323  162.4690 C.ar    1  UNL1        0.1385
      5 C         142.5721  138.0404  162.4664 C.ar    1  UNL1        0.0384
      6 C         141.7731  137.8161  161.2170 C.ar    1  UNL1        0.0208
      7 C         139.4793  139.9952  159.5916 C.3     1  UNL1        0.0723
      8 C         139.9902  139.0650  158.5314 C.ar    1  UNL1        0.1268
      9 N         139.1911  138.8407  157.2820 N.ar    1  UNL1       -0.2318
     10 C         139.7019  137.9105  156.2218 C.ar    1  UNL1        0.0871
     11 C         138.9028  137.6862  154.9724 C.ar    1  UNL1        0.0193
     12 C         139.4136  136.7561  153.9123 C.ar    1  UNL1        0.0015
     13 C         140.7236  136.0503  154.1016 C.ar    1  UNL1        0.0041
     14 C         141.5227  136.2746  155.3510 C.ar    1  UNL1        0.0775
     15 C         141.0118  137.2047  156.4111 C.ar    1  UNL1        0.0781
     16 C         141.8110  137.4290  157.6606 C.ar    1  UNL1        0.2669
     17 O         143.1209  136.7232  157.8499 O.2     1  UNL1       -0.2666
     18 N         141.3001  138.3592  158.7207 N.ar    1  UNL1       -0.2626
     19 C         142.8326  135.5687  155.5403 C.3     1  UNL1        0.4188
     20 F         144.1426  134.8629  155.7297 F       1  UNL1       -0.1659
     21 F         143.5452  136.7164  154.8883 F       1  UNL1       -0.1659
     22 F         142.1200  134.4211  156.1924 F       1  UNL1       -0.1659
     23 O         144.4965  139.2566  163.7185 O.3     1  UNL1       -0.4791
     24 C         143.8932  140.0041  164.8705 C.3     1  UNL1        0.1687
     25 C         143.2531  139.2522  165.9997 C.3     1  UNL1        0.0609
     26 C         142.6497  139.9996  167.1518 C.3     1  UNL1        0.0758
     27 N         142.6864  141.4991  167.1746 N.3     1  UNL1       -0.2737
     28 C         143.3265  142.2509  166.0455 C.3     1  UNL1        0.0758
     29 C         143.9298  141.5034  164.8935 C.3     1  UNL1        0.0609
     30 C         142.0830  142.2466  168.3267 C.3     1  UNL1        0.0575
     31 C         142.5690  142.6895  169.6749 C.3     1  UNL1        0.0160
     32 C         141.2297  143.3037  169.9559 C.3     1  UNL1        0.0028
     33 C         140.7438  142.8608  168.6078 C.3     1  UNL1        0.0160
@<TRIPOS>BOND
     1     7     8    1
     2     8     9   ar
     3     9    10   ar
     4    10    11   ar
     5    11    12   ar
     6    12    13   ar
     7    13    14   ar
     8    14    19    1
     9    19    20    1
    10    19    21    1
    11    19    22    1
    12    14    15   ar
    13    15    16   ar
    14    16    17    2
    15    16    18   ar
    16    18     1    1
    17     1     2   ar
    18     2     3   ar
    19     3     4   ar
    20     4    23    1
    21    23    24    1
    22    24    25    1
    23    25    26    1
    24    26    27    1
    25    27    30    1
    26    30    31    1
    27    31    32    1
    28    32    33    1
    29    27    28    1
    30    28    29    1
    31     4     5   ar
    32     5     6   ar
    33    18     8   ar
    34     6     1   ar
    35    15    10   ar
    36    29    24    1
    37    33    30    1
@<TRIPOS>MOLECULE
*****
 33 37 0 0 0
SMALL
GASTEIGER

@<TRIPOS>ATOM
      1 C         139.9123  142.4250  162.1050 C.ar    1  UNL1        0.0681
      2 C         141.1289  142.1937  161.2586 C.ar    1  UNL1        0.0208
      3 C         141.0176  142.2169  159.7629 C.ar    1  UNL1        0.0384
      4 C         139.6896  142.4714  159.1137 C.ar    1  UNL1        0.1385
      5 C         138.4729  142.7027  159.9600 C.ar    1  UNL1        0.0384
      6 C         138.5843  142.6795  161.4557 C.ar    1  UNL1        0.0208
      7 C         140.8279  144.8722  163.5790 C.3     1  UNL1        0.0723
      8 C         140.4815  143.6254  164.3377 C.ar    1  UNL1        0.1268
      9 N         140.5930  143.6022  165.8334 N.ar    1  UNL1       -0.2318
     10 C         140.2466  142.3554  166.5921 C.ar    1  UNL1        0.0871
     11 C         140.3581  142.3322  168.0877 C.ar    1  UNL1        0.0193
     12 C         140.0117  141.0854  168.8463 C.ar    1  UNL1        0.0015
     13 C         139.5539  139.8618  168.1093 C.ar    1  UNL1        0.0041
     14 C         139.4425  139.8850  166.6136 C.ar    1  UNL1        0.0775
     15 C         139.7888  141.1318  165.8550 C.ar    1  UNL1        0.0781
     16 C         139.6774  141.1550  164.3593 C.ar    1  UNL1        0.2669
     17 O         139.2196  139.9314  163.6222 O.2     1  UNL1       -0.2666
     18 N         140.0237  142.4018  163.6007 N.ar    1  UNL1       -0.2626
     19 C         138.9847  138.6614  165.8766 C.3     1  UNL1        0.4188
     20 F         138.5269  137.4378  165.1395 F       1  UNL1       -0.1659
     21 F         140.4126  138.2482  165.6756 F       1  UNL1       -0.1659
     22 F         137.5568  139.0745  166.0776 F       1  UNL1       -0.1659
     23 O         139.5781  142.4947  157.6179 O.3     1  UNL1       -0.4791
     24 C         139.6290  143.8009  156.8823 C.3     1  UNL1        0.1687
     25 C         140.1759  145.0224  157.5598 C.3     1  UNL1        0.0609
     26 C         140.2268  146.3286  156.8242 C.3     1  UNL1        0.0758
     27 N         139.7309  146.4134  155.4110 N.3     1  UNL1       -0.2737
     28 C         139.1841  145.1919  154.7335 C.3     1  UNL1        0.0758
     29 C         139.1332  143.8857  155.4692 C.3     1  UNL1        0.0609
     30 C         139.7818  147.7196  154.6753 C.3     1  UNL1        0.0575
     31 C         139.2171  149.0899  154.9067 C.3     1  UNL1        0.0160
     32 C         139.8538  149.5668  153.6350 C.3     1  UNL1        0.0028
     33 C         140.4184  148.1966  153.4037 C.3     1  UNL1        0.0160
@<TRIPOS>BOND
     1     7     8    1
     2     8     9   ar
     3     9    10   ar
     4    10    11   ar
     5    11    12   ar
     6    12    13   ar
     7    13    14   ar
     8    14    19    1
     9    19    20    1
    10    19    21    1
    11    19    22    1
    12    14    15   ar
    13    15    16   ar
    14    16    17    2
    15    16    18   ar
    16    18     1    1
    17     1     2   ar
    18     2     3   ar
    19     3     4   ar
    20     4    23    1
    21    23    24    1
    22    24    25    1
    23    25    26    1
    24    26    27    1
    25    27    30    1
    26    30    31    1
    27    31    32    1
    28    32    33    1
    29    27    28    1
    30    28    29    1
    31     4     5   ar
    32     5     6   ar
    33    18     8   ar
    34     6     1   ar
    35    15    10   ar
    36    29    24    1
    37    33    30    1
@<TRIPOS>MOLECULE
*****
 33 37 0 0 0
SMALL
GASTEIGER

@<TRIPOS>ATOM
      1 C         141.0428  143.8322  160.1090 C.ar    1  UNL1        0.0681
      2 C         140.2432  142.8828  159.2668 C.ar    1  UNL1        0.0208
      3 C         139.8264  143.2781  157.8812 C.ar    1  UNL1        0.0384
      4 C         140.2094  144.6227  157.3378 C.ar    1  UNL1        0.1385
      5 C         141.0090  145.5720  158.1800 C.ar    1  UNL1        0.0384
      6 C         141.4258  145.1768  159.5656 C.ar    1  UNL1        0.0208
      7 C         143.8006  142.7564  160.5964 C.3     1  UNL1        0.0723
      8 C         142.8384  142.8989  161.7384 C.ar    1  UNL1        0.1268
      9 N         143.2552  142.5036  163.1240 N.ar    1  UNL1       -0.2318
     10 C         142.2931  142.6461  164.2660 C.ar    1  UNL1        0.0871
     11 C         142.7098  142.2508  165.6516 C.ar    1  UNL1        0.0193
     12 C         141.7477  142.3933  166.7935 C.ar    1  UNL1        0.0015
     13 C         140.3689  142.9312  166.5498 C.ar    1  UNL1        0.0041
     14 C         139.9521  143.3266  165.1642 C.ar    1  UNL1        0.0775
     15 C         140.9142  143.1840  164.0223 C.ar    1  UNL1        0.0781
     16 C         140.4975  143.5794  162.6366 C.ar    1  UNL1        0.2669
     17 O         139.1186  144.1173  162.3929 O.2     1  UNL1       -0.2666
     18 N         141.4596  143.4368  161.4947 N.ar    1  UNL1       -0.2626
     19 C         138.5732  143.8645  164.9205 C.3     1  UNL1        0.4188
     20 F         137.1944  144.4023  164.6768 F       1  UNL1       -0.1659
     21 F         139.0737  145.2575  165.1634 F       1  UNL1       -0.1659
     22 F         138.0727  142.4714  164.6777 F       1  UNL1       -0.1659
     23 O         139.7926  145.0181  155.9520 O.3     1  UNL1       -0.4791
     24 C         139.6515  146.4685  155.5964 C.3     1  UNL1        0.1687
     25 C         138.8680  147.3864  156.4874 C.3     1  UNL1        0.0609
     26 C         138.7269  148.8367  156.1318 C.3     1  UNL1        0.0758
     27 N         139.3692  149.3693  154.8852 N.3     1  UNL1       -0.2737
     28 C         140.1526  148.4514  153.9943 C.3     1  UNL1        0.0758
     29 C         140.2938  147.0010  154.3499 C.3     1  UNL1        0.0609
     30 C         139.2281  150.8196  154.5296 C.3     1  UNL1        0.0575
     31 C         139.7697  151.7035  153.4453 C.3     1  UNL1        0.0160
     32 C         139.0285  152.8708  154.0267 C.3     1  UNL1        0.0028
     33 C         138.4870  151.9870  155.1109 C.3     1  UNL1        0.0160
@<TRIPOS>BOND
     1     7     8    1
     2     8     9   ar
     3     9    10   ar
     4    10    11   ar
     5    11    12   ar
     6    12    13   ar
     7    13    14   ar
     8    14    19    1
     9    19    20    1
    10    19    21    1
    11    19    22    1
    12    14    15   ar
    13    15    16   ar
    14    16    17    2
    15    16    18   ar
    16    18     1    1
    17     1     2   ar
    18     2     3   ar
    19     3     4   ar
    20     4    23    1
    21    23    24    1
    22    24    25    1
    23    25    26    1
    24    26    27    1
    25    27    30    1
    26    30    31    1
    27    31    32    1
    28    32    33    1
    29    27    28    1
    30    28    29    1
    31     4     5   ar
    32     5     6   ar
    33    18     8   ar
    34     6     1   ar
    35    15    10   ar
    36    29    24    1
    37    33    30    1
@<TRIPOS>MOLECULE
*****
 33 37 0 0 0
SMALL
GASTEIGER

@<TRIPOS>ATOM
      1 C         141.6429  138.9360  161.1129 C.ar    1  UNL1        0.0681
      2 C         142.5847  137.7685  161.1039 C.ar    1  UNL1        0.0208
      3 C         143.0982  137.2293  159.8018 C.ar    1  UNL1        0.0384
      4 C         142.6699  137.8574  158.5088 C.ar    1  UNL1        0.1385
      5 C         141.7281  139.0248  158.5178 C.ar    1  UNL1        0.0384
      6 C         141.2146  139.5641  159.8199 C.ar    1  UNL1        0.0208
      7 C         139.0393  137.9436  162.2250 C.3     1  UNL1        0.0723
      8 C         139.8275  138.9791  162.9711 C.ar    1  UNL1        0.1268
      9 N         139.3140  139.5183  164.2732 N.ar    1  UNL1       -0.2318
     10 C         140.1023  140.5537  165.0193 C.ar    1  UNL1        0.0871
     11 C         139.5887  141.0930  166.3214 C.ar    1  UNL1        0.0193
     12 C         140.3770  142.1283  167.0674 C.ar    1  UNL1        0.0015
     13 C         141.6787  142.6245  166.5114 C.ar    1  UNL1        0.0041
     14 C         142.1923  142.0853  165.2093 C.ar    1  UNL1        0.0775
     15 C         141.4040  141.0499  164.4633 C.ar    1  UNL1        0.0781
     16 C         141.9176  140.5106  163.1611 C.ar    1  UNL1        0.2669
     17 O         143.2193  141.0068  162.6050 O.2     1  UNL1       -0.2666
     18 N         141.1293  139.4752  162.4151 N.ar    1  UNL1       -0.2626
     19 C         143.4941  142.5814  164.6532 C.3     1  UNL1        0.4188
     20 F         144.7958  143.0776  164.0972 F       1  UNL1       -0.1659
     21 F         142.7696  143.6866  163.9434 F       1  UNL1       -0.1659
     22 F         144.2185  141.4763  165.3631 F       1  UNL1       -0.1659
     23 O         143.1834  137.3181  157.2066 O.3     1  UNL1       -0.4791
     24 C         142.7867  135.9437  156.7554 C.3     1  UNL1        0.1687
     25 C         141.7145  135.7745  155.7201 C.3     1  UNL1        0.0609
     26 C         141.3178  134.4001  155.2689 C.3     1  UNL1        0.0758
     27 N         141.9933  133.1948  155.8531 N.3     1  UNL1       -0.2737
     28 C         143.0655  133.3640  156.8883 C.3     1  UNL1        0.0758
     29 C         143.4622  134.7385  157.3395 C.3     1  UNL1        0.0609
     30 C         141.5966  131.8204  155.4019 C.3     1  UNL1        0.0575
     31 C         142.1792  130.4460  155.5499 C.3     1  UNL1        0.0160
     32 C         141.0356  129.8767  154.7638 C.3     1  UNL1        0.0028
     33 C         140.4531  131.2509  154.6158 C.3     1  UNL1        0.0160
@<TRIPOS>BOND
     1     7     8    1
     2     8     9   ar
     3     9    10   ar
     4    10    11   ar
     5    11    12   ar
     6    12    13   ar
     7    13    14   ar
     8    14    19    1
     9    19    20    1
    10    19    21    1
    11    19    22    1
    12    14    15   ar
    13    15    16   ar
    14    16    17    2
    15    16    18   ar
    16    18     1    1
    17     1     2   ar
    18     2     3   ar
    19     3     4   ar
    20     4    23    1
    21    23    24    1
    22    24    25    1
    23    25    26    1
    24    26    27    1
    25    27    30    1
    26    30    31    1
    27    31    32    1
    28    32    33    1
    29    27    28    1
    30    28    29    1
    31     4     5   ar
    32     5     6   ar
    33    18     8   ar
    34     6     1   ar
    35    15    10   ar
    36    29    24    1
    37    33    30    1
@<TRIPOS>MOLECULE
*****
 33 37 0 0 0
SMALL
GASTEIGER

@<TRIPOS>ATOM
      1 C         140.3939  143.7749  161.3187 C.ar    1  UNL1        0.0681
      2 C         139.7363  142.7853  160.4031 C.ar    1  UNL1        0.0208
      3 C         139.7018  143.0388  158.9252 C.ar    1  UNL1        0.0384
      4 C         140.3250  144.2819  158.3628 C.ar    1  UNL1        0.1385
      5 C         140.9826  145.2715  159.2784 C.ar    1  UNL1        0.0384
      6 C         141.0170  145.0180  160.7564 C.ar    1  UNL1        0.0208
      7 C         137.8865  144.0386  162.9446 C.3     1  UNL1        0.0723
      8 C         139.1746  143.6531  163.6098 C.ar    1  UNL1        0.1268
      9 N         139.2090  143.3995  165.0877 N.ar    1  UNL1       -0.2318
     10 C         140.4971  143.0141  165.7528 C.ar    1  UNL1        0.0871
     11 C         140.5315  142.7605  167.2308 C.ar    1  UNL1        0.0193
     12 C         141.8195  142.3751  167.8958 C.ar    1  UNL1        0.0015
     13 C         143.0732  142.2432  167.0829 C.ar    1  UNL1        0.0041
     14 C         143.0388  142.4968  165.6049 C.ar    1  UNL1        0.0775
     15 C         141.7508  142.8822  164.9399 C.ar    1  UNL1        0.0781
     16 C         141.7163  143.1358  163.4618 C.ar    1  UNL1        0.2669
     17 O         142.9700  143.0040  162.6489 O.2     1  UNL1       -0.2666
     18 N         140.4283  143.5213  162.7968 N.ar    1  UNL1       -0.2626
     19 C         144.2925  142.3649  164.7920 C.3     1  UNL1        0.4188
     20 F         145.5462  142.2331  163.9790 F       1  UNL1       -0.1659
     21 F         143.9784  140.9196  164.5420 F       1  UNL1       -0.1659
     22 F         144.6066  143.8102  165.0419 F       1  UNL1       -0.1659
     23 O         140.2905  144.5355  156.8847 O.3     1  UNL1       -0.4791
     24 C         140.0143  145.9159  156.3669 C.3     1  UNL1        0.1687
     25 C         139.1292  146.8452  157.1435 C.3     1  UNL1        0.0609
     26 C         138.8529  148.2256  156.6257 C.3     1  UNL1        0.0758
     27 N         139.4618  148.6767  155.3311 N.3     1  UNL1       -0.2737
     28 C         140.3469  147.7475  154.5545 C.3     1  UNL1        0.0758
     29 C         140.6231  146.3671  155.0724 C.3     1  UNL1        0.0609
     30 C         139.1855  150.0571  154.8133 C.3     1  UNL1        0.0575
     31 C         139.4016  150.7631  153.5075 C.3     1  UNL1        0.0160
     32 C         138.7949  152.0093  154.0809 C.3     1  UNL1        0.0028
     33 C         138.5788  151.3034  155.3866 C.3     1  UNL1        0.0160
@<TRIPOS>BOND
     1     7     8    1
     2     8     9   ar
     3     9    10   ar
     4    10    11   ar
     5    11    12   ar
     6    12    13   ar
     7    13    14   ar
     8    14    19    1
     9    19    20    1
    10    19    21    1
    11    19    22    1
    12    14    15   ar
    13    15    16   ar
    14    16    17    2
    15    16    18   ar
    16    18     1    1
    17     1     2   ar
    18     2     3   ar
    19     3     4   ar
    20     4    23    1
    21    23    24    1
    22    24    25    1
    23    25    26    1
    24    26    27    1
    25    27    30    1
    26    30    31    1
    27    31    32    1
    28    32    33    1
    29    27    28    1
    30    28    29    1
    31     4     5   ar
    32     5     6   ar
    33    18     8   ar
    34     6     1   ar
    35    15    10   ar
    36    29    24    1
    37    33    30    1
@<TRIPOS>MOLECULE
*****
 33 37 0 0 0
SMALL
GASTEIGER

@<TRIPOS>ATOM
      1 C         142.0753  139.3405  161.8150 C.ar    1  UNL1        0.0681
      2 C         140.8216  139.6868  161.0678 C.ar    1  UNL1        0.0208
      3 C         140.7606  139.5050  159.5801 C.ar    1  UNL1        0.0384
      4 C         141.9534  138.9769  158.8397 C.ar    1  UNL1        0.1385
      5 C         143.2071  138.6306  159.5868 C.ar    1  UNL1        0.0384
      6 C         143.2681  138.8124  161.0745 C.ar    1  UNL1        0.0208
      7 C         141.1907  137.1252  163.6343 C.3     1  UNL1        0.0723
      8 C         141.6939  138.4147  164.2124 C.ar    1  UNL1        0.1268
      9 N         141.7548  138.5965  165.7001 N.ar    1  UNL1       -0.2318
     10 C         142.2580  139.8860  166.2781 C.ar    1  UNL1        0.0871
     11 C         142.3190  140.0678  167.7658 C.ar    1  UNL1        0.0193
     12 C         142.8221  141.3572  168.3438 C.ar    1  UNL1        0.0015
     13 C         143.2644  142.4648  167.4341 C.ar    1  UNL1        0.0041
     14 C         143.2035  142.2830  165.9464 C.ar    1  UNL1        0.0775
     15 C         142.7003  140.9936  165.3685 C.ar    1  UNL1        0.0781
     16 C         142.6394  140.8118  163.8807 C.ar    1  UNL1        0.2669
     17 O         143.0817  141.9194  162.9710 O.2     1  UNL1       -0.2666
     18 N         142.1362  139.5223  163.3027 N.ar    1  UNL1       -0.2626
     19 C         143.6458  143.3907  165.0368 C.3     1  UNL1        0.4188
     20 F         144.0881  144.4983  164.1271 F       1  UNL1       -0.1659
     21 F         145.0547  142.8796  165.0995 F       1  UNL1       -0.1659
     22 F         142.2370  143.9017  164.9740 F       1  UNL1       -0.1659
     23 O         141.8924  138.7950  157.3519 O.3     1  UNL1       -0.4791
     24 C         141.8226  137.4154  156.7672 C.3     1  UNL1        0.1687
     25 C         140.7550  137.0770  155.7693 C.3     1  UNL1        0.0609
     26 C         140.6852  135.6974  155.1846 C.3     1  UNL1        0.0758
     27 N         141.6829  134.6563  155.5978 N.3     1  UNL1       -0.2737
     28 C         142.7504  134.9948  156.5957 C.3     1  UNL1        0.0758
     29 C         142.8202  136.3743  157.1804 C.3     1  UNL1        0.0609
     30 C         141.6130  133.2767  155.0131 C.3     1  UNL1        0.0575
     31 C         141.2383  132.7090  153.6762 C.3     1  UNL1        0.0160
     32 C         141.5142  131.3257  154.1863 C.3     1  UNL1        0.0028
     33 C         141.8889  131.8933  155.5231 C.3     1  UNL1        0.0160
@<TRIPOS>BOND
     1     7     8    1
     2     8     9   ar
     3     9    10   ar
     4    10    11   ar
     5    11    12   ar
     6    12    13   ar
     7    13    14   ar
     8    14    19    1
     9    19    20    1
    10    19    21    1
    11    19    22    1
    12    14    15   ar
    13    15    16   ar
    14    16    17    2
    15    16    18   ar
    16    18     1    1
    17     1     2   ar
    18     2     3   ar
    19     3     4   ar
    20     4    23    1
    21    23    24    1
    22    24    25    1
    23    25    26    1
    24    26    27    1
    25    27    30    1
    26    30    31    1
    27    31    32    1
    28    32    33    1
    29    27    28    1
    30    28    29    1
    31     4     5   ar
    32     5     6   ar
    33    18     8   ar
    34     6     1   ar
    35    15    10   ar
    36    29    24    1
    37    33    30    1
@<TRIPOS>MOLECULE
*****
 33 37 0 0 0
SMALL
GASTEIGER

@<TRIPOS>ATOM
      1 C         141.7535  136.1663  156.1628 C.ar    1  UNL1        0.0681
      2 C         140.3334  136.6263  156.3096 C.ar    1  UNL1        0.0208
      3 C         140.0123  137.8018  157.1842 C.ar    1  UNL1        0.0384
      4 C         141.1115  138.5174  157.9121 C.ar    1  UNL1        0.1385
      5 C         142.5316  138.0574  157.7653 C.ar    1  UNL1        0.0384
      6 C         142.8527  136.8818  156.8907 C.ar    1  UNL1        0.0208
      7 C         140.9112  136.1646  153.2835 C.3     1  UNL1        0.0723
      8 C         141.6534  134.9899  153.8485 C.ar    1  UNL1        0.1268
      9 N         141.9743  133.8143  152.9738 N.ar    1  UNL1       -0.2318
     10 C         142.7165  132.6395  153.5388 C.ar    1  UNL1        0.0871
     11 C         143.0374  131.4640  152.6642 C.ar    1  UNL1        0.0193
     12 C         143.7796  130.2893  153.2291 C.ar    1  UNL1        0.0015
     13 C         144.2007  130.2901  154.6688 C.ar    1  UNL1        0.0041
     14 C         143.8798  131.4657  155.5435 C.ar    1  UNL1        0.0775
     15 C         143.1377  132.6404  154.9785 C.ar    1  UNL1        0.0781
     16 C         142.8167  133.8160  155.8531 C.ar    1  UNL1        0.2669
     17 O         143.2378  133.8168  157.2928 O.2     1  UNL1       -0.2666
     18 N         142.0745  134.9907  155.2882 N.ar    1  UNL1       -0.2626
     19 C         144.3010  131.4665  156.9831 C.3     1  UNL1        0.4188
     20 F         144.7221  131.4673  158.4228 F       1  UNL1       -0.1659
     21 F         145.6257  132.0535  156.5952 F       1  UNL1       -0.1659
     22 F         142.9762  130.8795  157.3710 F       1  UNL1       -0.1659
     23 O         140.7905  139.6930  158.7867 O.3     1  UNL1       -0.4791
     24 C         140.2964  139.4739  160.1860 C.3     1  UNL1        0.1687
     25 C         141.1424  139.8880  161.3535 C.3     1  UNL1        0.0609
     26 C         140.6483  139.6690  162.7528 C.3     1  UNL1        0.0758
     27 N         139.3083  139.0359  162.9845 N.3     1  UNL1       -0.2737
     28 C         138.4624  138.6219  161.8170 C.3     1  UNL1        0.0758
     29 C         138.9565  138.8409  160.4178 C.3     1  UNL1        0.0609
     30 C         138.8142  138.8169  164.3838 C.3     1  UNL1        0.0575
     31 C         138.1654  139.6781  165.4266 C.3     1  UNL1        0.0160
     32 C         138.1155  138.5071  166.3626 C.3     1  UNL1        0.0028
     33 C         138.7642  137.6459  165.3199 C.3     1  UNL1        0.0160
@<TRIPOS>BOND
     1     7     8    1
     2     8     9   ar
     3     9    10   ar
     4    10    11   ar
     5    11    12   ar
     6    12    13   ar
     7    13    14   ar
     8    14    19    1
     9    19    20    1
    10    19    21    1
    11    19    22    1
    12    14    15   ar
    13    15    16   ar
    14    16    17    2
    15    16    18   ar
    16    18     1    1
    17     1     2   ar
    18     2     3   ar
    19     3     4   ar
    20     4    23    1
    21    23    24    1
    22    24    25    1
    23    25    26    1
    24    26    27    1
    25    27    30    1
    26    30    31    1
    27    31    32    1
    28    32    33    1
    29    27    28    1
    30    28    29    1
    31     4     5   ar
    32     5     6   ar
    33    18     8   ar
    34     6     1   ar
    35    15    10   ar
    36    29    24    1
    37    33    30    1
