@<TRIPOS>MOLECULE
*****
 36 41 0 0 0
SMALL
GASTEIGER

@<TRIPOS>ATOM
      1 C         140.3936  142.3635  166.2051 C.ar    1  UNL1        0.0087
      2 C         140.4617  142.7719  167.6468 C.ar    1  UNL1        0.0212
      3 C         140.1417  141.7781  168.7237 C.ar    1  UNL1        0.0989
      4 N         139.7535  140.3759  168.3590 N.ar    1  UNL1       -0.2433
      5 C         139.6853  139.9674  166.9173 C.ar    1  UNL1        0.0875
      6 C         139.3359  138.6661  166.2582 C.ar    1  UNL1        0.0235
      7 C         139.4400  138.8557  164.7739 C.ar    1  UNL1        0.0292
      8 S         139.8538  140.2741  164.5156 S.2     1  UNL1       -0.0880
      9 C         140.0054  140.9612  165.8404 C.ar    1  UNL1        0.0468
     10 C         143.8905  145.0360  163.4430 C.3     1  UNL1        0.0307
     11 C         142.4622  144.6935  163.7471 C.ar    1  UNL1       -0.0249
     12 C         141.3539  145.3449  162.9741 C.ar    1  UNL1        0.0068
     13 C         139.9255  145.0024  163.2781 C.ar    1  UNL1        0.0573
     14 CL        138.8172  145.6537  162.5052 Cl      1  UNL1       -0.0823
     15 C         139.6054  144.0086  164.3551 C.ar    1  UNL1        0.0111
     16 C         140.7137  143.3573  165.1281 C.ar    1  UNL1       -0.0028
     17 C         142.1421  143.6998  164.8240 C.ar    1  UNL1       -0.0236
     18 C         143.2504  143.0484  165.5970 C.3     1  UNL1        0.0570
     19 C         143.8033  141.7285  165.1474 C.3     1  UNL1        0.1353
     20 C         144.8576  141.6809  164.0815 C.3     1  UNL1        0.0989
     21 N         145.4105  140.3610  163.6319 N.3     1  UNL1       -0.2933
     22 C         144.9091  139.0887  164.2483 C.3     1  UNL1        0.1011
     23 C         143.8549  139.1363  165.3142 C.3     1  UNL1        0.1591
     24 O         143.3020  140.4562  165.7638 O.3     1  UNL1       -0.3530
     25 H         146.4166  140.3916  163.7969 H       1  UNL1        0.1234
     26 C         139.1765  137.8102  163.7309 C.3     1  UNL1        0.1339
     27 N         139.5731  138.0563  162.3054 N.am    1  UNL1       -0.2250
     28 C         140.9642  137.9738  161.7504 C.2     1  UNL1        0.2316
     29 O         142.2030  137.6308  162.5236 O.2     1  UNL1       -0.2745
     30 C         140.8991  138.2945  160.2866 C.3     1  UNL1        0.0862
     31 C         139.4678  138.5753  159.9368 C.3     1  UNL1        0.0862
     32 C         138.6482  138.4280  161.1845 C.2     1  UNL1        0.2316
     33 O         137.1643  138.6189  161.2924 O.2     1  UNL1       -0.2745
     34 C         140.5269  138.6480  158.8772 C.3     1  UNL1        0.0173
     35 C         139.6854  139.0212  157.6929 C.3     1  UNL1        0.0010
     36 C         141.8783  138.5911  158.2287 C.3     1  UNL1        0.0010
@<TRIPOS>BOND
     1    10    11    1
     2    11    12   ar
     3    12    13   ar
     4    13    14    1
     5    13    15   ar
     6    15    16   ar
     7    16     1    1
     8     1     2   ar
     9     2     3   ar
    10     3     4   ar
    11     4     5   ar
    12     5     6   ar
    13     6     7   ar
    14     7    26    1
    15    26    27    1
    16    27    28   am
    17    28    29    2
    18    28    30    1
    19    30    31    1
    20    31    32    1
    21    32    33    2
    22    31    34    1
    23    34    35    1
    24    34    36    1
    25     7     8   ar
    26     8     9   ar
    27    16    17   ar
    28    17    18    1
    29    19    18    1
    30    19    20    1
    31    20    21    1
    32    21    22    1
    33    22    23    1
    34    23    24    1
    35    17    11   ar
    36    24    19    1
    37     9     1   ar
    38     9     5   ar
    39    32    27   am
    40    34    30    1
    41    21    25    1
@<TRIPOS>MOLECULE
*****
 36 41 0 0 0
SMALL
GASTEIGER

@<TRIPOS>ATOM
      1 C         140.2174  139.1806  162.8941 C.ar    1  UNL1        0.0087
      2 C         139.3603  138.0209  162.4811 C.ar    1  UNL1        0.0212
      3 C         138.8100  137.9541  161.0873 C.ar    1  UNL1        0.0989
      4 N         139.1167  139.0469  160.1066 N.ar    1  UNL1       -0.2433
      5 C         139.9737  140.2065  160.5197 C.ar    1  UNL1        0.0875
      6 C         140.4427  141.4227  159.7774 C.ar    1  UNL1        0.0235
      7 C         141.2829  142.2411  160.7124 C.ar    1  UNL1        0.0292
      8 S         141.3333  141.5308  162.0326 S.2     1  UNL1       -0.0880
      9 C         140.5241  140.2734  161.9135 C.ar    1  UNL1        0.0468
     10 C         139.6429  140.4349  167.9038 C.3     1  UNL1        0.0307
     11 C         140.4805  139.8746  166.7928 C.ar    1  UNL1       -0.0249
     12 C         141.8686  139.3812  167.0755 C.ar    1  UNL1        0.0068
     13 C         142.7062  138.8209  165.9645 C.ar    1  UNL1        0.0573
     14 CL        144.0942  138.3274  166.2472 Cl      1  UNL1       -0.0823
     15 C         142.1558  138.7540  164.5707 C.ar    1  UNL1        0.0111
     16 C         140.7678  139.2474  164.2880 C.ar    1  UNL1       -0.0028
     17 C         139.9302  139.8077  165.3990 C.ar    1  UNL1       -0.0236
     18 C         138.5421  140.3012  165.1162 C.3     1  UNL1        0.0570
     19 C         138.3383  141.6482  164.4885 C.3     1  UNL1        0.1353
     20 C         137.5480  141.7725  163.2196 C.3     1  UNL1        0.0989
     21 N         137.3442  143.1195  162.5919 N.3     1  UNL1       -0.2933
     22 C         137.9308  144.3422  163.2330 C.3     1  UNL1        0.1011
     23 C         138.7212  144.2178  164.5018 C.3     1  UNL1        0.1591
     24 O         138.9249  142.8708  165.1295 O.3     1  UNL1       -0.3530
     25 H         136.3368  143.2699  162.5380 H       1  UNL1        0.1234
     26 C         141.9549  143.5416  160.3846 C.3     1  UNL1        0.1339
     27 N         141.4895  144.3514  159.2109 N.am    1  UNL1       -0.2250
     28 C         142.0337  144.2744  157.8152 C.2     1  UNL1        0.2316
     29 O         143.1389  143.3741  157.3483 O.2     1  UNL1       -0.2745
     30 C         141.2788  145.2557  156.9685 C.3     1  UNL1        0.0862
     31 C         140.2679  145.9392  157.8408 C.3     1  UNL1        0.0862
     32 C         140.3982  145.3803  159.2268 C.2     1  UNL1        0.2316
     33 O         139.5806  145.7801  160.4191 O.2     1  UNL1       -0.2745
     34 C         140.3703  146.2988  156.3882 C.3     1  UNL1        0.0173
     35 C         139.2968  147.3428  156.3020 C.3     1  UNL1        0.0010
     36 C         140.8455  146.2957  154.9655 C.3     1  UNL1        0.0010
@<TRIPOS>BOND
     1    10    11    1
     2    11    12   ar
     3    12    13   ar
     4    13    14    1
     5    13    15   ar
     6    15    16   ar
     7    16     1    1
     8     1     2   ar
     9     2     3   ar
    10     3     4   ar
    11     4     5   ar
    12     5     6   ar
    13     6     7   ar
    14     7    26    1
    15    26    27    1
    16    27    28   am
    17    28    29    2
    18    28    30    1
    19    30    31    1
    20    31    32    1
    21    32    33    2
    22    31    34    1
    23    34    35    1
    24    34    36    1
    25     7     8   ar
    26     8     9   ar
    27    16    17   ar
    28    17    18    1
    29    19    18    1
    30    19    20    1
    31    20    21    1
    32    21    22    1
    33    22    23    1
    34    23    24    1
    35    17    11   ar
    36    24    19    1
    37     9     1   ar
    38     9     5   ar
    39    32    27   am
    40    34    30    1
    41    21    25    1
@<TRIPOS>MOLECULE
*****
 36 41 0 0 0
SMALL
GASTEIGER

@<TRIPOS>ATOM
      1 C         142.2620  140.1051  165.3830 C.ar    1  UNL1        0.0087
      2 C         143.4195  139.1662  165.5514 C.ar    1  UNL1        0.0212
      3 C         144.5628  139.2036  164.5812 C.ar    1  UNL1        0.0989
      4 N         144.5486  140.1800  163.4425 N.ar    1  UNL1       -0.2433
      5 C         143.3911  141.1189  163.2741 C.ar    1  UNL1        0.0875
      6 C         143.1009  142.1822  162.2566 C.ar    1  UNL1        0.0235
      7 C         141.7782  142.8019  162.5980 C.ar    1  UNL1        0.0292
      8 S         141.2509  142.1217  163.8265 S.2     1  UNL1       -0.0880
      9 C         142.2477  141.0815  164.2443 C.ar    1  UNL1        0.0468
     10 C         137.6738  138.1629  166.8584 C.3     1  UNL1        0.0307
     11 C         138.8245  139.0966  167.0909 C.ar    1  UNL1       -0.0249
     12 C         138.8318  139.9929  168.2937 C.ar    1  UNL1        0.0068
     13 C         139.9825  140.9267  168.5262 C.ar    1  UNL1        0.0573
     14 CL        139.9899  141.8230  169.7289 Cl      1  UNL1       -0.0823
     15 C         141.1259  140.9640  167.5559 C.ar    1  UNL1        0.0111
     16 C         141.1186  140.0677  166.3532 C.ar    1  UNL1       -0.0028
     17 C         139.9679  139.1340  166.1207 C.ar    1  UNL1       -0.0236
     18 C         139.9606  138.2377  164.9179 C.3     1  UNL1        0.0570
     19 C         139.2152  138.6468  163.6822 C.3     1  UNL1        0.1353
     20 C         138.3118  139.8439  163.7131 C.3     1  UNL1        0.0989
     21 N         137.5664  140.2531  162.4774 N.3     1  UNL1       -0.2933
     22 C         137.7244  139.4651  161.2108 C.3     1  UNL1        0.1011
     23 C         138.6278  138.2681  161.1799 C.3     1  UNL1        0.1591
     24 O         139.3732  137.8589  162.4157 O.3     1  UNL1       -0.3530
     25 H         137.8494  141.2100  162.2661 H       1  UNL1        0.1234
     26 C         141.1017  143.9078  161.8434 C.3     1  UNL1        0.1339
     27 N         140.5370  143.6481  160.4782 N.am    1  UNL1       -0.2250
     28 C         141.2792  143.7660  159.1800 C.2     1  UNL1        0.2316
     29 O         142.7164  144.1643  159.0191 O.2     1  UNL1       -0.2745
     30 C         140.3319  143.4156  158.0710 C.3     1  UNL1        0.0862
     31 C         139.0043  143.0812  158.6838 C.3     1  UNL1        0.0862
     32 C         139.1311  143.2249  160.1716 C.2     1  UNL1        0.2316
     33 O         138.0429  142.9870  161.1762 O.2     1  UNL1       -0.2745
     34 C         139.1791  143.0235  157.1952 C.3     1  UNL1        0.0173
     35 C         137.7991  142.6004  156.7871 C.3     1  UNL1        0.0010
     36 C         139.8331  143.1127  155.8482 C.3     1  UNL1        0.0010
@<TRIPOS>BOND
     1    10    11    1
     2    11    12   ar
     3    12    13   ar
     4    13    14    1
     5    13    15   ar
     6    15    16   ar
     7    16     1    1
     8     1     2   ar
     9     2     3   ar
    10     3     4   ar
    11     4     5   ar
    12     5     6   ar
    13     6     7   ar
    14     7    26    1
    15    26    27    1
    16    27    28   am
    17    28    29    2
    18    28    30    1
    19    30    31    1
    20    31    32    1
    21    32    33    2
    22    31    34    1
    23    34    35    1
    24    34    36    1
    25     7     8   ar
    26     8     9   ar
    27    16    17   ar
    28    17    18    1
    29    19    18    1
    30    19    20    1
    31    20    21    1
    32    21    22    1
    33    22    23    1
    34    23    24    1
    35    17    11   ar
    36    24    19    1
    37     9     1   ar
    38     9     5   ar
    39    32    27   am
    40    34    30    1
    41    21    25    1
@<TRIPOS>MOLECULE
*****
 36 41 0 0 0
SMALL
GASTEIGER

@<TRIPOS>ATOM
      1 C         140.1845  142.8094  164.8788 C.ar    1  UNL1        0.0087
      2 C         139.3280  144.0408  164.8764 C.ar    1  UNL1        0.0212
      3 C         139.4403  145.0303  163.7547 C.ar    1  UNL1        0.0989
      4 N         140.4091  144.7884  162.6354 N.ar    1  UNL1       -0.2433
      5 C         141.2656  143.5570  162.6378 C.ar    1  UNL1        0.0875
      6 C         142.3026  143.0538  161.6779 C.ar    1  UNL1        0.0235
      7 C         142.8312  141.7532  162.2063 C.ar    1  UNL1        0.0292
      8 S         142.1209  141.4527  163.4928 S.2     1  UNL1       -0.0880
      9 C         141.1533  142.5675  163.7595 C.ar    1  UNL1        0.0468
     10 C         137.8959  138.6563  167.0035 C.3     1  UNL1        0.0307
     11 C         138.9279  139.7433  167.0628 C.ar    1  UNL1       -0.0249
     12 C         139.8475  139.8408  168.2439 C.ar    1  UNL1        0.0068
     13 C         140.8795  140.9278  168.3033 C.ar    1  UNL1        0.0573
     14 CL        141.7991  141.0253  169.4842 Cl      1  UNL1       -0.0823
     15 C         140.9918  141.9174  167.1815 C.ar    1  UNL1        0.0111
     16 C         140.0722  141.8199  166.0005 C.ar    1  UNL1       -0.0028
     17 C         139.0402  140.7329  165.9412 C.ar    1  UNL1       -0.0236
     18 C         138.1206  140.6354  164.7601 C.3     1  UNL1        0.0570
     19 C         138.4957  139.7806  163.5860 C.3     1  UNL1        0.1353
     20 C         139.6480  138.8259  163.6911 C.3     1  UNL1        0.0989
     21 N         140.0231  137.9710  162.5170 N.3     1  UNL1       -0.2933
     22 C         139.2460  138.0708  161.2379 C.3     1  UNL1        0.1011
     23 C         138.0938  139.0254  161.1329 C.3     1  UNL1        0.1591
     24 O         137.7186  139.8803  162.3069 O.3     1  UNL1       -0.3530
     25 H         139.9581  137.0012  162.8262 H       1  UNL1        0.1234
     26 C         143.8851  140.9026  161.5615 C.3     1  UNL1        0.1339
     27 N         143.5688  140.1356  160.3118 N.am    1  UNL1       -0.2250
     28 C         143.0776  138.7197  160.2469 C.2     1  UNL1        0.2316
     29 O         142.8165  137.8224  161.4201 O.2     1  UNL1       -0.2745
     30 C         142.8934  138.3588  158.8026 C.3     1  UNL1        0.0862
     31 C         143.2708  139.5515  157.9750 C.3     1  UNL1        0.0862
     32 C         143.6882  140.6497  158.9078 C.2     1  UNL1        0.2316
     33 O         144.1448  142.0210  158.5068 O.2     1  UNL1       -0.2745
     34 C         142.8082  138.2909  157.3066 C.3     1  UNL1        0.0173
     35 C         142.8940  138.7115  155.8694 C.3     1  UNL1        0.0010
     36 C         142.3159  136.8842  157.1373 C.3     1  UNL1        0.0010
@<TRIPOS>BOND
     1    10    11    1
     2    11    12   ar
     3    12    13   ar
     4    13    14    1
     5    13    15   ar
     6    15    16   ar
     7    16     1    1
     8     1     2   ar
     9     2     3   ar
    10     3     4   ar
    11     4     5   ar
    12     5     6   ar
    13     6     7   ar
    14     7    26    1
    15    26    27    1
    16    27    28   am
    17    28    29    2
    18    28    30    1
    19    30    31    1
    20    31    32    1
    21    32    33    2
    22    31    34    1
    23    34    35    1
    24    34    36    1
    25     7     8   ar
    26     8     9   ar
    27    16    17   ar
    28    17    18    1
    29    19    18    1
    30    19    20    1
    31    20    21    1
    32    21    22    1
    33    22    23    1
    34    23    24    1
    35    17    11   ar
    36    24    19    1
    37     9     1   ar
    38     9     5   ar
    39    32    27   am
    40    34    30    1
    41    21    25    1
@<TRIPOS>MOLECULE
*****
 36 41 0 0 0
SMALL
GASTEIGER

@<TRIPOS>ATOM
      1 C         143.2020  142.3457  160.3514 C.ar    1  UNL1        0.0087
      2 C         143.8977  142.7176  159.0756 C.ar    1  UNL1        0.0212
      3 C         144.3472  141.6463  158.1268 C.ar    1  UNL1        0.0989
      4 N         144.1011  140.2032  158.4539 N.ar    1  UNL1       -0.2433
      5 C         143.4054  139.8314  159.7297 C.ar    1  UNL1        0.0875
      6 C         143.0272  138.5038  160.3166 C.ar    1  UNL1        0.0235
      7 C         142.3439  138.7546  161.6282 C.ar    1  UNL1        0.0292
      8 S         142.2998  140.2372  161.8518 S.2     1  UNL1       -0.0880
      9 C         142.9559  140.9026  160.6784 C.ar    1  UNL1        0.0468
     10 C         139.6182  145.7786  161.8915 C.3     1  UNL1        0.0307
     11 C         140.9605  145.1334  162.0703 C.ar    1  UNL1       -0.0249
     12 C         141.8532  145.5595  163.1980 C.ar    1  UNL1        0.0068
     13 C         143.1955  144.9143  163.3768 C.ar    1  UNL1        0.0573
     14 CL        144.0881  145.3404  164.5044 Cl      1  UNL1       -0.0823
     15 C         143.6451  143.8431  162.4279 C.ar    1  UNL1        0.0111
     16 C         142.7524  143.4170  161.3003 C.ar    1  UNL1       -0.0028
     17 C         141.4101  144.0622  161.1215 C.ar    1  UNL1       -0.0236
     18 C         140.5174  143.6361  159.9938 C.3     1  UNL1        0.0570
     19 C         139.6216  142.4439  160.1558 C.3     1  UNL1        0.1353
     20 C         138.5248  142.4635  161.1790 C.3     1  UNL1        0.0989
     21 N         137.6290  141.2713  161.3410 N.3     1  UNL1       -0.2933
     22 C         137.8299  140.0596  160.4798 C.3     1  UNL1        0.1011
     23 C         138.9266  140.0402  159.4567 C.3     1  UNL1        0.1591
     24 O         139.8224  141.2323  159.2947 O.3     1  UNL1       -0.3530
     25 H         136.6757  141.5948  161.1764 H       1  UNL1        0.1234
     26 C         141.8001  137.7067  162.5536 C.3     1  UNL1        0.1339
     27 N         141.0136  138.1111  163.7651 N.am    1  UNL1       -0.2250
     28 C         141.5684  138.7508  165.0033 C.2     1  UNL1        0.2316
     29 O         143.0070  139.0982  165.2474 O.2     1  UNL1       -0.2745
     30 C         140.4319  138.9819  165.9547 C.3     1  UNL1        0.0862
     31 C         139.1748  138.4852  165.3044 C.3     1  UNL1        0.0862
     32 C         139.5343  137.9470  163.9512 C.2     1  UNL1        0.2316
     33 O         138.5817  137.3496  162.9584 O.2     1  UNL1       -0.2745
     34 C         139.1223  139.0838  166.6788 C.3     1  UNL1        0.0173
     35 C         137.6537  138.9632  166.9594 C.3     1  UNL1        0.0010
     36 C         139.5797  139.7243  167.9557 C.3     1  UNL1        0.0010
@<TRIPOS>BOND
     1    10    11    1
     2    11    12   ar
     3    12    13   ar
     4    13    14    1
     5    13    15   ar
     6    15    16   ar
     7    16     1    1
     8     1     2   ar
     9     2     3   ar
    10     3     4   ar
    11     4     5   ar
    12     5     6   ar
    13     6     7   ar
    14     7    26    1
    15    26    27    1
    16    27    28   am
    17    28    29    2
    18    28    30    1
    19    30    31    1
    20    31    32    1
    21    32    33    2
    22    31    34    1
    23    34    35    1
    24    34    36    1
    25     7     8   ar
    26     8     9   ar
    27    16    17   ar
    28    17    18    1
    29    19    18    1
    30    19    20    1
    31    20    21    1
    32    21    22    1
    33    22    23    1
    34    23    24    1
    35    17    11   ar
    36    24    19    1
    37     9     1   ar
    38     9     5   ar
    39    32    27   am
    40    34    30    1
    41    21    25    1
@<TRIPOS>MOLECULE
*****
 36 41 0 0 0
SMALL
GASTEIGER

@<TRIPOS>ATOM
      1 C         138.8316  142.0395  164.1324 C.ar    1  UNL1        0.0087
      2 C         137.8918  143.2085  164.1131 C.ar    1  UNL1        0.0212
      3 C         137.7534  144.0390  162.8718 C.ar    1  UNL1        0.0989
      4 N         138.5547  143.7007  161.6497 N.ar    1  UNL1       -0.2433
      5 C         139.4944  142.5318  161.6690 C.ar    1  UNL1        0.0875
      6 C         140.4077  141.9608  160.6250 C.ar    1  UNL1        0.0235
      7 C         141.1106  140.7773  161.2211 C.ar    1  UNL1        0.0292
      8 S         140.6317  140.6168  162.6335 S.2     1  UNL1       -0.0880
      9 C         139.6329  141.7012  162.9103 C.ar    1  UNL1        0.0468
     10 C         141.0063  141.2215  168.7801 C.3     1  UNL1        0.0307
     11 C         140.0574  140.7999  167.6976 C.ar    1  UNL1       -0.0249
     12 C         139.2471  139.5476  167.8564 C.ar    1  UNL1        0.0068
     13 C         138.2982  139.1260  166.7739 C.ar    1  UNL1        0.0573
     14 CL        137.4879  137.8738  166.9326 Cl      1  UNL1       -0.0823
     15 C         138.1597  139.9567  165.5325 C.ar    1  UNL1        0.0111
     16 C         138.9701  141.2089  165.3737 C.ar    1  UNL1       -0.0028
     17 C         139.9189  141.6305  166.4563 C.ar    1  UNL1       -0.0236
     18 C         140.7293  142.8828  166.2974 C.3     1  UNL1        0.0570
     19 C         141.9602  142.8759  165.4402 C.3     1  UNL1        0.1353
     20 C         143.0628  141.8978  165.7189 C.3     1  UNL1        0.0989
     21 N         144.2937  141.8909  164.8616 N.3     1  UNL1       -0.2933
     22 C         144.4219  142.8621  163.7257 C.3     1  UNL1        0.1011
     23 C         143.3194  143.8402  163.4470 C.3     1  UNL1        0.1591
     24 O         142.0885  143.8471  164.3043 O.3     1  UNL1       -0.3530
     25 H         144.3674  140.9563  164.4597 H       1  UNL1        0.1234
     26 C         142.1158  139.9070  160.5266 C.3     1  UNL1        0.1339
     27 N         141.7602  139.2355  159.2334 N.am    1  UNL1       -0.2250
     28 C         140.4529  138.5727  158.9144 C.2     1  UNL1        0.2316
     29 O         139.2717  138.4651  159.8326 O.2     1  UNL1       -0.2745
     30 C         140.5341  138.0364  157.5159 C.3     1  UNL1        0.0862
     31 C         141.8916  138.3677  156.9706 C.3     1  UNL1        0.0862
     32 C         142.6494  139.1088  158.0320 C.2     1  UNL1        0.2316
     33 O         144.0503  139.6314  157.9130 O.2     1  UNL1       -0.2745
     34 C         140.9049  137.6205  156.1232 C.3     1  UNL1        0.0173
     35 C         141.7162  137.4427  154.8742 C.3     1  UNL1        0.0010
     36 C         139.6364  136.9350  155.7096 C.3     1  UNL1        0.0010
@<TRIPOS>BOND
     1    10    11    1
     2    11    12   ar
     3    12    13   ar
     4    13    14    1
     5    13    15   ar
     6    15    16   ar
     7    16     1    1
     8     1     2   ar
     9     2     3   ar
    10     3     4   ar
    11     4     5   ar
    12     5     6   ar
    13     6     7   ar
    14     7    26    1
    15    26    27    1
    16    27    28   am
    17    28    29    2
    18    28    30    1
    19    30    31    1
    20    31    32    1
    21    32    33    2
    22    31    34    1
    23    34    35    1
    24    34    36    1
    25     7     8   ar
    26     8     9   ar
    27    16    17   ar
    28    17    18    1
    29    19    18    1
    30    19    20    1
    31    20    21    1
    32    21    22    1
    33    22    23    1
    34    23    24    1
    35    17    11   ar
    36    24    19    1
    37     9     1   ar
    38     9     5   ar
    39    32    27   am
    40    34    30    1
    41    21    25    1
@<TRIPOS>MOLECULE
*****
 36 41 0 0 0
SMALL
GASTEIGER

@<TRIPOS>ATOM
      1 C         138.8274  141.8877  163.9667 C.ar    1  UNL1        0.0087
      2 C         137.9574  143.1077  163.8991 C.ar    1  UNL1        0.0212
      3 C         137.8242  143.8634  162.6103 C.ar    1  UNL1        0.0989
      4 N         138.5611  143.3992  161.3891 N.ar    1  UNL1       -0.2433
      5 C         139.4312  142.1793  161.4566 C.ar    1  UNL1        0.0875
      6 C         140.2724  141.4880  160.4249 C.ar    1  UNL1        0.0235
      7 C         140.9255  140.3050  161.0761 C.ar    1  UNL1        0.0292
      8 S         140.4879  140.2651  162.5102 S.2     1  UNL1       -0.0880
      9 C         139.5643  141.4235  162.7454 C.ar    1  UNL1        0.0468
     10 C         141.0009  141.3322  168.6536 C.3     1  UNL1        0.0307
     11 C         140.0474  140.8542  167.5990 C.ar    1  UNL1       -0.0249
     12 C         139.2271  139.6203  167.8332 C.ar    1  UNL1        0.0068
     13 C         138.2736  139.1423  166.7785 C.ar    1  UNL1        0.0573
     14 CL        137.4533  137.9085  167.0127 Cl      1  UNL1       -0.0823
     15 C         138.1404  139.8981  165.4897 C.ar    1  UNL1        0.0111
     16 C         138.9606  141.1319  165.2555 C.ar    1  UNL1       -0.0028
     17 C         139.9142  141.6099  166.3102 C.ar    1  UNL1       -0.0236
     18 C         140.7345  142.8438  166.0760 C.3     1  UNL1        0.0570
     19 C         142.0629  142.7416  165.3869 C.3     1  UNL1        0.1353
     20 C         142.8373  141.4579  165.4377 C.3     1  UNL1        0.0989
     21 N         144.1658  141.3556  164.7486 N.3     1  UNL1       -0.2933
     22 C         144.7198  142.5371  164.0088 C.3     1  UNL1        0.1011
     23 C         143.9454  143.8207  163.9581 C.3     1  UNL1        0.1591
     24 O         142.6170  143.9229  164.6472 O.3     1  UNL1       -0.3530
     25 H         144.0895  140.5948  164.0735 H       1  UNL1        0.1234
     26 C         141.8533  139.3326  160.4099 C.3     1  UNL1        0.1339
     27 N         142.7655  139.7971  159.3135 N.am    1  UNL1       -0.2250
     28 C         142.7972  139.2689  157.9099 C.2     1  UNL1        0.2316
     29 O         141.9224  138.1834  157.3564 O.2     1  UNL1       -0.2745
     30 C         143.8574  140.0167  157.1571 C.3     1  UNL1        0.0862
     31 C         144.4809  141.0070  158.0953 C.3     1  UNL1        0.0862
     32 C         143.8061  140.8714  159.4281 C.2     1  UNL1        0.2316
     33 O         144.1172  141.6697  160.6593 O.2     1  UNL1       -0.2745
     34 C         144.9591  140.9141  156.6767 C.3     1  UNL1        0.0173
     35 C         146.0231  141.9714  156.6906 C.3     1  UNL1        0.0010
     36 C         145.0679  140.4541  155.2531 C.3     1  UNL1        0.0010
@<TRIPOS>BOND
     1    10    11    1
     2    11    12   ar
     3    12    13   ar
     4    13    14    1
     5    13    15   ar
     6    15    16   ar
     7    16     1    1
     8     1     2   ar
     9     2     3   ar
    10     3     4   ar
    11     4     5   ar
    12     5     6   ar
    13     6     7   ar
    14     7    26    1
    15    26    27    1
    16    27    28   am
    17    28    29    2
    18    28    30    1
    19    30    31    1
    20    31    32    1
    21    32    33    2
    22    31    34    1
    23    34    35    1
    24    34    36    1
    25     7     8   ar
    26     8     9   ar
    27    16    17   ar
    28    17    18    1
    29    19    18    1
    30    19    20    1
    31    20    21    1
    32    21    22    1
    33    22    23    1
    34    23    24    1
    35    17    11   ar
    36    24    19    1
    37     9     1   ar
    38     9     5   ar
    39    32    27   am
    40    34    30    1
    41    21    25    1
@<TRIPOS>MOLECULE
*****
 36 41 0 0 0
SMALL
GASTEIGER

@<TRIPOS>ATOM
      1 C         140.0329  143.0775  163.9024 C.ar    1  UNL1        0.0087
      2 C         139.2425  144.3518  163.9406 C.ar    1  UNL1        0.0212
      3 C         138.8786  145.0473  162.6624 C.ar    1  UNL1        0.0989
      4 N         139.3052  144.4685  161.3460 N.ar    1  UNL1       -0.2433
      5 C         140.0955  143.1942  161.3077 C.ar    1  UNL1        0.0875
      6 C         140.6513  142.3917  160.1689 C.ar    1  UNL1        0.0235
      7 C         141.3586  141.2001  160.7432 C.ar    1  UNL1        0.0292
      8 S         141.2400  141.2663  162.2371 S.2     1  UNL1       -0.0880
      9 C         140.4594  142.4987  162.5859 C.ar    1  UNL1        0.0468
     10 C         138.9342  139.5998  167.6035 C.3     1  UNL1        0.0307
     11 C         139.8474  140.6431  167.0312 C.ar    1  UNL1       -0.0249
     12 C         141.1245  140.9908  167.7371 C.ar    1  UNL1        0.0068
     13 C         142.0377  142.0341  167.1647 C.ar    1  UNL1        0.0573
     14 CL        143.3147  142.3819  167.8705 Cl      1  UNL1       -0.0823
     15 C         141.6738  142.7297  165.8864 C.ar    1  UNL1        0.0111
     16 C         140.3967  142.3819  165.1806 C.ar    1  UNL1       -0.0028
     17 C         139.4835  141.3386  165.7530 C.ar    1  UNL1       -0.0236
     18 C         138.2065  140.9909  165.0471 C.3     1  UNL1        0.0570
     19 C         138.2237  140.0298  163.8956 C.3     1  UNL1        0.1353
     20 C         138.7817  138.6495  164.0791 C.3     1  UNL1        0.0989
     21 N         138.7989  137.6883  162.9276 N.3     1  UNL1       -0.2933
     22 C         138.2582  138.1075  161.5927 C.3     1  UNL1        0.1011
     23 C         137.7003  139.4877  161.4092 C.3     1  UNL1        0.1591
     24 O         137.6830  140.4488  162.5607 O.3     1  UNL1       -0.3530
     25 H         138.2634  136.8705  163.2187 H       1  UNL1        0.1234
     26 C         142.0612  140.1302  159.9610 C.3     1  UNL1        0.1339
     27 N         143.1100  140.5026  158.9554 N.am    1  UNL1       -0.2250
     28 C         143.2920  139.8842  157.6010 C.2     1  UNL1        0.2316
     29 O         142.4570  138.7849  157.0143 O.2     1  UNL1       -0.2745
     30 C         144.4554  140.5582  156.9361 C.3     1  UNL1        0.0862
     31 C         144.9926  141.5932  157.8797 C.3     1  UNL1        0.0862
     32 C         144.1611  141.5588  159.1277 C.2     1  UNL1        0.2316
     33 O         144.3479  142.4280  160.3358 O.2     1  UNL1       -0.2745
     34 C         145.6323  141.3982  156.5371 C.3     1  UNL1        0.0173
     35 C         146.7180  142.4304  156.6135 C.3     1  UNL1        0.0010
     36 C         145.8950  140.8448  155.1678 C.3     1  UNL1        0.0010
@<TRIPOS>BOND
     1    10    11    1
     2    11    12   ar
     3    12    13   ar
     4    13    14    1
     5    13    15   ar
     6    15    16   ar
     7    16     1    1
     8     1     2   ar
     9     2     3   ar
    10     3     4   ar
    11     4     5   ar
    12     5     6   ar
    13     6     7   ar
    14     7    26    1
    15    26    27    1
    16    27    28   am
    17    28    29    2
    18    28    30    1
    19    30    31    1
    20    31    32    1
    21    32    33    2
    22    31    34    1
    23    34    35    1
    24    34    36    1
    25     7     8   ar
    26     8     9   ar
    27    16    17   ar
    28    17    18    1
    29    19    18    1
    30    19    20    1
    31    20    21    1
    32    21    22    1
    33    22    23    1
    34    23    24    1
    35    17    11   ar
    36    24    19    1
    37     9     1   ar
    38     9     5   ar
    39    32    27   am
    40    34    30    1
    41    21    25    1
@<TRIPOS>MOLECULE
*****
 36 41 0 0 0
SMALL
GASTEIGER

@<TRIPOS>ATOM
      1 C         142.3851  141.9039  164.9130 C.ar    1  UNL1        0.0087
      2 C         143.5881  142.0253  165.8007 C.ar    1  UNL1        0.0212
      3 C         144.4475  143.2530  165.7354 C.ar    1  UNL1        0.0989
      4 N         144.1039  144.3592  164.7824 N.ar    1  UNL1       -0.2433
      5 C         142.9010  144.2378  163.8947 C.ar    1  UNL1        0.0875
      6 C         142.3173  145.1578  162.8638 C.ar    1  UNL1        0.0235
      7 C         141.0972  144.4988  162.2919 C.ar    1  UNL1        0.0292
      8 S         140.9267  143.1715  162.9694 S.2     1  UNL1       -0.0880
      9 C         142.0416  143.0101  163.9600 C.ar    1  UNL1        0.0468
     10 C         138.3677  139.3274  166.9677 C.3     1  UNL1        0.0307
     11 C         139.5169  139.3880  166.0056 C.ar    1  UNL1       -0.0249
     12 C         139.8067  138.2210  165.1089 C.ar    1  UNL1        0.0068
     13 C         140.9560  138.2816  164.1468 C.ar    1  UNL1        0.0573
     14 CL        141.2458  137.1146  163.2501 Cl      1  UNL1       -0.0823
     15 C         141.8155  139.5093  164.0816 C.ar    1  UNL1        0.0111
     16 C         141.5257  140.6762  164.9783 C.ar    1  UNL1       -0.0028
     17 C         140.3764  140.6156  165.9403 C.ar    1  UNL1       -0.0236
     18 C         140.0866  141.7827  166.8371 C.3     1  UNL1        0.0570
     19 C         140.6961  141.8460  168.2062 C.3     1  UNL1        0.1353
     20 C         140.5436  143.0846  169.0385 C.3     1  UNL1        0.0989
     21 N         141.1530  143.1478  170.4077 N.3     1  UNL1       -0.2933
     22 C         141.9150  141.9725  170.9445 C.3     1  UNL1        0.1011
     23 C         142.0675  140.7340  170.1121 C.3     1  UNL1        0.1591
     24 O         141.4580  140.6707  168.7430 O.3     1  UNL1       -0.3530
     25 H         140.3909  143.3280  171.0612 H       1  UNL1        0.1234
     26 C         140.2042  145.0675  161.2291 C.3     1  UNL1        0.1339
     27 N         140.1419  144.4210  159.8771 N.am    1  UNL1       -0.2250
     28 C         141.0102  144.7533  158.7000 C.2     1  UNL1        0.2316
     29 O         142.0934  145.7904  158.6683 O.2     1  UNL1       -0.2745
     30 C         140.6052  143.8663  157.5601 C.3     1  UNL1        0.0862
     31 C         139.4866  142.9859  158.0327 C.3     1  UNL1        0.0862
     32 C         139.2002  143.3287  159.4647 C.2     1  UNL1        0.2316
     33 O         138.1555  142.6911  160.3320 O.2     1  UNL1       -0.2745
     34 C         139.9919  142.8662  156.6255 C.3     1  UNL1        0.0173
     35 C         139.0949  141.7762  156.1184 C.3     1  UNL1        0.0010
     36 C         140.8087  143.1251  155.3943 C.3     1  UNL1        0.0010
@<TRIPOS>BOND
     1    10    11    1
     2    11    12   ar
     3    12    13   ar
     4    13    14    1
     5    13    15   ar
     6    15    16   ar
     7    16     1    1
     8     1     2   ar
     9     2     3   ar
    10     3     4   ar
    11     4     5   ar
    12     5     6   ar
    13     6     7   ar
    14     7    26    1
    15    26    27    1
    16    27    28   am
    17    28    29    2
    18    28    30    1
    19    30    31    1
    20    31    32    1
    21    32    33    2
    22    31    34    1
    23    34    35    1
    24    34    36    1
    25     7     8   ar
    26     8     9   ar
    27    16    17   ar
    28    17    18    1
    29    19    18    1
    30    19    20    1
    31    20    21    1
    32    21    22    1
    33    22    23    1
    34    23    24    1
    35    17    11   ar
    36    24    19    1
    37     9     1   ar
    38     9     5   ar
    39    32    27   am
    40    34    30    1
    41    21    25    1
