@<TRIPOS>MOLECULE
*****
 32 34 0 0 0
SMALL
GASTEIGER

@<TRIPOS>ATOM
      1 C         141.4245  138.6026  162.2113 C.3     1  UNL1        0.0782
      2 C         141.2692  137.4826  163.1969 C.3     1  UNL1        0.0372
      3 C         141.7453  137.6548  164.6089 C.3     1  UNL1        0.0741
      4 N         142.3765  138.9470  165.0353 N.3     1  UNL1       -0.2689
      5 C         142.5318  140.0670  164.0496 C.3     1  UNL1        0.0741
      6 C         142.0558  139.8948  162.6376 C.3     1  UNL1        0.0372
      7 C         141.9407  138.2290  159.6926 C.3     1  UNL1        0.1148
      8 N         140.9485  138.4304  160.7992 N.am    1  UNL1       -0.2790
      9 C         139.4801  138.4596  160.4940 C.2     1  UNL1        0.2301
     10 O         139.0041  138.2875  159.0820 O.2     1  UNL1       -0.2745
     11 C         138.4878  138.6610  161.6007 C.3     1  UNL1        0.1116
     12 C         138.5053  139.9289  162.4022 C.ar    1  UNL1       -0.0130
     13 C         138.5224  141.2568  161.7049 C.ar    1  UNL1       -0.0025
     14 C         138.5399  142.5245  162.5064 C.ar    1  UNL1        0.0180
     15 C         138.5403  142.4643  164.0052 C.ar    1  UNL1        0.1057
     16 C         138.5232  141.1364  164.7025 C.ar    1  UNL1        0.0180
     17 C         138.5057  139.8686  163.9010 C.ar    1  UNL1       -0.0025
     18 S         138.5577  143.7322  164.8068 S.O2    1  UNL1        0.0104
     19 C         138.5752  144.9999  165.6083 C.3     1  UNL1        0.1816
     20 O         139.5024  143.1002  165.7856 O.2     1  UNL1       -0.1686
     21 O         137.6131  144.3641  163.8279 O.2     1  UNL1       -0.1686
     22 C         142.8525  139.1191  166.4473 C.3     1  UNL1        0.0991
     23 C         142.1300  140.0514  167.3739 C.ar    1  UNL1       -0.0062
     24 C         142.8751  141.1642  168.0493 C.ar    1  UNL1       -0.0030
     25 C         142.1526  142.0966  168.9761 C.ar    1  UNL1        0.0036
     26 C         140.6848  141.9160  169.2273 C.ar    1  UNL1        0.0714
     27 C         139.9397  140.8031  168.5518 C.ar    1  UNL1        0.0036
     28 C         140.6622  139.8708  167.6252 C.ar    1  UNL1       -0.0030
     29 C         139.9623  142.8483  170.1539 C.3     1  UNL1        0.4186
     30 F         139.2397  143.7805  171.0806 F       1  UNL1       -0.1659
     31 F         141.0490  143.8668  169.9766 F       1  UNL1       -0.1659
     32 F         138.8755  141.8297  170.3313 F       1  UNL1       -0.1659
@<TRIPOS>BOND
     1     7     8    1
     2     8     9   am
     3     9    10    2
     4     9    11    1
     5    11    12    1
     6    12    13   ar
     7    13    14   ar
     8    14    15   ar
     9    15    18    1
    10    18    19    1
    11    18    20    2
    12    18    21    2
    13    15    16   ar
    14    16    17   ar
    15     8     1    1
    16     1     2    1
    17     2     3    1
    18     3     4    1
    19     4    22    1
    20    22    23    1
    21    23    24   ar
    22    24    25   ar
    23    25    26   ar
    24    26    29    1
    25    29    30    1
    26    29    31    1
    27    29    32    1
    28    26    27   ar
    29    27    28   ar
    30     4     5    1
    31     5     6    1
    32    17    12   ar
    33     6     1    1
    34    28    23   ar
@<TRIPOS>MOLECULE
*****
 32 34 0 0 0
SMALL
GASTEIGER

@<TRIPOS>ATOM
      1 C         142.5403  140.4338  167.9541 C.3     1  UNL1        0.0782
      2 C         142.7809  139.6364  166.7067 C.3     1  UNL1        0.0372
      3 C         143.3725  140.2968  165.4968 C.3     1  UNL1        0.0741
      4 N         143.7235  141.7547  165.5344 N.3     1  UNL1       -0.2689
      5 C         143.4830  142.5521  166.7819 C.3     1  UNL1        0.0741
      6 C         142.8913  141.8917  167.9918 C.3     1  UNL1        0.0372
      7 C         142.7987  138.8879  170.0261 C.3     1  UNL1        0.1148
      8 N         141.9487  139.7734  169.1640 N.am    1  UNL1       -0.2790
      9 C         140.5069  139.9985  169.5117 C.2     1  UNL1        0.2301
     10 O         139.9153  139.3380  170.7216 O.2     1  UNL1       -0.2745
     11 C         139.6569  140.8839  168.6496 C.3     1  UNL1        0.1116
     12 C         139.3075  140.4600  167.2538 C.ar    1  UNL1       -0.0130
     13 C         138.6798  139.1192  167.0121 C.ar    1  UNL1       -0.0025
     14 C         138.3304  138.6953  165.6164 C.ar    1  UNL1        0.0180
     15 C         138.6086  139.6122  164.4622 C.ar    1  UNL1        0.1057
     16 C         139.2362  140.9530  164.7039 C.ar    1  UNL1        0.0180
     17 C         139.5857  141.3768  166.0996 C.ar    1  UNL1       -0.0025
     18 S         138.2592  139.1882  163.0664 S.O2    1  UNL1        0.0104
     19 C         137.9097  138.7644  161.6707 C.3     1  UNL1        0.1816
     20 O         137.6530  140.5359  162.8089 O.2     1  UNL1       -0.1686
     21 O         138.8654  137.8406  163.3239 O.2     1  UNL1       -0.1686
     22 C         144.3152  142.4151  164.3245 C.3     1  UNL1        0.0991
     23 C         143.4268  143.1328  163.3520 C.ar    1  UNL1       -0.0062
     24 C         143.4985  142.8072  161.8895 C.ar    1  UNL1       -0.0030
     25 C         142.6102  143.5249  160.9170 C.ar    1  UNL1        0.0036
     26 C         141.6502  144.5681  161.4069 C.ar    1  UNL1        0.0714
     27 C         141.5785  144.8936  162.8695 C.ar    1  UNL1        0.0036
     28 C         142.4668  144.1760  163.8420 C.ar    1  UNL1       -0.0030
     29 C         140.7618  145.2858  160.4345 C.3     1  UNL1        0.4186
     30 F         139.8735  146.0034  159.4620 F       1  UNL1       -0.1659
     31 F         140.3046  146.2034  161.5293 F       1  UNL1       -0.1659
     32 F         141.2191  144.3681  159.3396 F       1  UNL1       -0.1659
@<TRIPOS>BOND
     1     7     8    1
     2     8     9   am
     3     9    10    2
     4     9    11    1
     5    11    12    1
     6    12    13   ar
     7    13    14   ar
     8    14    15   ar
     9    15    18    1
    10    18    19    1
    11    18    20    2
    12    18    21    2
    13    15    16   ar
    14    16    17   ar
    15     8     1    1
    16     1     2    1
    17     2     3    1
    18     3     4    1
    19     4    22    1
    20    22    23    1
    21    23    24   ar
    22    24    25   ar
    23    25    26   ar
    24    26    29    1
    25    29    30    1
    26    29    31    1
    27    29    32    1
    28    26    27   ar
    29    27    28   ar
    30     4     5    1
    31     5     6    1
    32    17    12   ar
    33     6     1    1
    34    28    23   ar
@<TRIPOS>MOLECULE
*****
 32 34 0 0 0
SMALL
GASTEIGER

@<TRIPOS>ATOM
      1 C         138.6747  139.0484  163.0994 C.3     1  UNL1        0.0782
      2 C         138.8291  137.8226  163.9500 C.3     1  UNL1        0.0372
      3 C         138.8671  137.9467  165.4444 C.3     1  UNL1        0.0741
      4 N         138.7507  139.2965  166.0881 N.3     1  UNL1       -0.2689
      5 C         138.5962  140.5223  165.2375 C.3     1  UNL1        0.0741
      6 C         138.5582  140.3983  163.7431 C.3     1  UNL1        0.0372
      7 C         137.3720  139.2307  160.8589 C.3     1  UNL1        0.1148
      8 N         138.6367  138.9243  161.6050 N.am    1  UNL1       -0.2790
      9 C         139.8634  138.4939  160.8567 C.2     1  UNL1        0.2301
     10 O         139.8254  138.3699  159.3623 O.2     1  UNL1       -0.2745
     11 C         141.1281  138.1876  161.6028 C.3     1  UNL1        0.1116
     12 C         141.8248  139.2693  162.3739 C.ar    1  UNL1       -0.0130
     13 C         141.8486  140.6721  161.8435 C.ar    1  UNL1       -0.0025
     14 C         142.5453  141.7538  162.6146 C.ar    1  UNL1        0.0180
     15 C         143.2181  141.4326  163.9162 C.ar    1  UNL1        0.1057
     16 C         143.1942  140.0297  164.4467 C.ar    1  UNL1        0.0180
     17 C         142.4976  138.9481  163.6755 C.ar    1  UNL1       -0.0025
     18 S         143.9148  142.5143  164.6874 S.O2    1  UNL1        0.0104
     19 C         144.6114  143.5959  165.4585 C.3     1  UNL1        0.1816
     20 O         145.2431  141.9395  164.2935 O.2     1  UNL1       -0.1686
     21 O         142.5864  143.0891  165.0812 O.2     1  UNL1       -0.1686
     22 C         138.7887  139.4205  167.5825 C.3     1  UNL1        0.0991
     23 C         139.8410  140.2644  168.2385 C.ar    1  UNL1       -0.0062
     24 C         139.5064  141.0618  169.4642 C.ar    1  UNL1       -0.0030
     25 C         140.5588  141.9057  170.1202 C.ar    1  UNL1        0.0036
     26 C         141.9456  141.9523  169.5506 C.ar    1  UNL1        0.0714
     27 C         142.2801  141.1549  168.3249 C.ar    1  UNL1        0.0036
     28 C         141.2278  140.3110  167.6689 C.ar    1  UNL1       -0.0030
     29 C         142.9979  142.7962  170.2066 C.3     1  UNL1        0.4186
     30 F         144.0502  143.6402  170.8626 F       1  UNL1       -0.1659
     31 F         143.9938  141.6878  170.0350 F       1  UNL1       -0.1659
     32 F         142.0020  143.9047  170.3782 F       1  UNL1       -0.1659
@<TRIPOS>BOND
     1     7     8    1
     2     8     9   am
     3     9    10    2
     4     9    11    1
     5    11    12    1
     6    12    13   ar
     7    13    14   ar
     8    14    15   ar
     9    15    18    1
    10    18    19    1
    11    18    20    2
    12    18    21    2
    13    15    16   ar
    14    16    17   ar
    15     8     1    1
    16     1     2    1
    17     2     3    1
    18     3     4    1
    19     4    22    1
    20    22    23    1
    21    23    24   ar
    22    24    25   ar
    23    25    26   ar
    24    26    29    1
    25    29    30    1
    26    29    31    1
    27    29    32    1
    28    26    27   ar
    29    27    28   ar
    30     4     5    1
    31     5     6    1
    32    17    12   ar
    33     6     1    1
    34    28    23   ar
@<TRIPOS>MOLECULE
*****
 32 34 0 0 0
SMALL
GASTEIGER

@<TRIPOS>ATOM
      1 C         143.1898  139.8366  161.6778 C.3     1  UNL1        0.0782
      2 C         144.3320  139.5353  162.6022 C.3     1  UNL1        0.0372
      3 C         144.0655  139.2049  164.0408 C.3     1  UNL1        0.0741
      4 N         142.6567  139.1759  164.5552 N.3     1  UNL1       -0.2689
      5 C         141.5144  139.4772  163.6308 C.3     1  UNL1        0.0741
      6 C         141.7810  139.8076  162.1921 C.3     1  UNL1        0.0372
      7 C         143.1923  139.1449  159.1735 C.3     1  UNL1        0.1148
      8 N         143.4563  140.1670  160.2391 N.am    1  UNL1       -0.2790
      9 C         143.9869  141.5196  159.8661 C.2     1  UNL1        0.2301
     10 O         144.2534  141.8500  158.4274 O.2     1  UNL1       -0.2745
     11 C         144.2508  142.5417  160.9317 C.3     1  UNL1        0.1116
     12 C         143.1309  143.0168  161.8093 C.ar    1  UNL1       -0.0130
     13 C         141.8170  143.4099  161.2017 C.ar    1  UNL1       -0.0025
     14 C         140.6971  143.8848  162.0793 C.ar    1  UNL1        0.0180
     15 C         140.8911  143.9667  163.5645 C.ar    1  UNL1        0.1057
     16 C         142.2050  143.5736  164.1720 C.ar    1  UNL1        0.0180
     17 C         143.3249  143.0986  163.2944 C.ar    1  UNL1       -0.0025
     18 S         139.7711  144.4417  164.4421 S.O2    1  UNL1        0.0104
     19 C         138.6512  144.9167  165.3196 C.3     1  UNL1        0.1816
     20 O         139.2054  145.2261  163.2955 O.2     1  UNL1       -0.1686
     21 O         140.3369  143.6573  165.5886 O.2     1  UNL1       -0.1686
     22 C         142.3902  138.8455  165.9938 C.3     1  UNL1        0.0991
     23 C         142.6234  139.8784  167.0562 C.ar    1  UNL1       -0.0062
     24 C         142.8162  141.3162  166.6748 C.ar    1  UNL1       -0.0030
     25 C         143.0494  142.3492  167.7372 C.ar    1  UNL1        0.0036
     26 C         143.0899  141.9442  169.1810 C.ar    1  UNL1        0.0714
     27 C         142.8971  140.5063  169.5623 C.ar    1  UNL1        0.0036
     28 C         142.6639  139.4734  168.5000 C.ar    1  UNL1       -0.0030
     29 C         143.3231  142.9771  170.2434 C.3     1  UNL1        0.4186
     30 F         143.5563  144.0100  171.3057 F       1  UNL1       -0.1659
     31 F         144.7926  142.6781  170.2115 F       1  UNL1       -0.1659
     32 F         141.8536  143.2761  170.2753 F       1  UNL1       -0.1659
@<TRIPOS>BOND
     1     7     8    1
     2     8     9   am
     3     9    10    2
     4     9    11    1
     5    11    12    1
     6    12    13   ar
     7    13    14   ar
     8    14    15   ar
     9    15    18    1
    10    18    19    1
    11    18    20    2
    12    18    21    2
    13    15    16   ar
    14    16    17   ar
    15     8     1    1
    16     1     2    1
    17     2     3    1
    18     3     4    1
    19     4    22    1
    20    22    23    1
    21    23    24   ar
    22    24    25   ar
    23    25    26   ar
    24    26    29    1
    25    29    30    1
    26    29    31    1
    27    29    32    1
    28    26    27   ar
    29    27    28   ar
    30     4     5    1
    31     5     6    1
    32    17    12   ar
    33     6     1    1
    34    28    23   ar
@<TRIPOS>MOLECULE
*****
 32 34 0 0 0
SMALL
GASTEIGER

@<TRIPOS>ATOM
      1 C         141.7059  138.3828  160.4435 C.3     1  UNL1        0.0782
      2 C         140.2607  138.7844  160.4284 C.3     1  UNL1        0.0372
      3 C         139.3876  138.4881  161.6116 C.3     1  UNL1        0.0741
      4 N         139.9596  137.7902  162.8098 N.3     1  UNL1       -0.2689
      5 C         141.4048  137.3886  162.8249 C.3     1  UNL1        0.0741
      6 C         142.2779  137.6849  161.6417 C.3     1  UNL1        0.0372
      7 C         142.4703  137.8428  158.0198 C.3     1  UNL1        0.1148
      8 N         142.5790  138.6790  159.2603 N.am    1  UNL1       -0.2790
      9 C         143.5610  139.8116  159.3177 C.2     1  UNL1        0.2301
     10 O         144.4341  140.1078  158.1345 O.2     1  UNL1       -0.2745
     11 C         143.6697  140.6478  160.5582 C.3     1  UNL1        0.1116
     12 C         142.4695  141.3860  161.0727 C.ar    1  UNL1       -0.0130
     13 C         141.6482  142.2252  160.1394 C.ar    1  UNL1       -0.0025
     14 C         140.4481  142.9634  160.6539 C.ar    1  UNL1        0.0180
     15 C         140.0693  142.8624  162.1017 C.ar    1  UNL1        0.1057
     16 C         140.8906  142.0232  163.0351 C.ar    1  UNL1        0.0180
     17 C         142.0907  141.2850  162.5206 C.ar    1  UNL1       -0.0025
     18 S         138.8691  143.6006  162.6163 S.O2    1  UNL1        0.0104
     19 C         137.6690  144.3388  163.1307 C.3     1  UNL1        0.1816
     20 O         138.1342  143.2912  161.3458 O.2     1  UNL1       -0.1686
     21 O         139.6040  143.9100  163.8867 O.2     1  UNL1       -0.1686
     22 C         139.0865  137.4940  163.9929 C.3     1  UNL1        0.0991
     23 C         139.2138  138.3132  165.2429 C.ar    1  UNL1       -0.0062
     24 C         140.4604  139.1087  165.4945 C.ar    1  UNL1       -0.0030
     25 C         140.5878  139.9280  166.7445 C.ar    1  UNL1        0.0036
     26 C         139.4686  139.9519  167.7430 C.ar    1  UNL1        0.0714
     27 C         138.2220  139.1563  167.4914 C.ar    1  UNL1        0.0036
     28 C         138.0946  138.3371  166.2414 C.ar    1  UNL1       -0.0030
     29 C         139.5960  140.7711  168.9929 C.3     1  UNL1        0.4186
     30 F         139.7233  141.5904  170.2429 F       1  UNL1       -0.1659
     31 F         138.4337  140.0367  169.5927 F       1  UNL1       -0.1659
     32 F         140.7582  141.5055  168.3932 F       1  UNL1       -0.1659
@<TRIPOS>BOND
     1     7     8    1
     2     8     9   am
     3     9    10    2
     4     9    11    1
     5    11    12    1
     6    12    13   ar
     7    13    14   ar
     8    14    15   ar
     9    15    18    1
    10    18    19    1
    11    18    20    2
    12    18    21    2
    13    15    16   ar
    14    16    17   ar
    15     8     1    1
    16     1     2    1
    17     2     3    1
    18     3     4    1
    19     4    22    1
    20    22    23    1
    21    23    24   ar
    22    24    25   ar
    23    25    26   ar
    24    26    29    1
    25    29    30    1
    26    29    31    1
    27    29    32    1
    28    26    27   ar
    29    27    28   ar
    30     4     5    1
    31     5     6    1
    32    17    12   ar
    33     6     1    1
    34    28    23   ar
@<TRIPOS>MOLECULE
*****
 32 34 0 0 0
SMALL
GASTEIGER

@<TRIPOS>ATOM
      1 C         141.4211  142.5656  167.6227 C.3     1  UNL1        0.0782
      2 C         142.8991  142.3452  167.4926 C.3     1  UNL1        0.0372
      3 C         143.5565  142.4427  166.1479 C.3     1  UNL1        0.0741
      4 N         142.7359  142.7606  164.9332 N.3     1  UNL1       -0.2689
      5 C         141.2579  142.9810  165.0632 C.3     1  UNL1        0.0741
      6 C         140.6004  142.8835  166.4079 C.3     1  UNL1        0.0372
      7 C         140.3869  143.7155  169.7102 C.3     1  UNL1        0.1148
      8 N         140.7637  142.4681  168.9674 N.am    1  UNL1       -0.2790
      9 C         140.4830  141.1230  169.5693 C.2     1  UNL1        0.2301
     10 O         139.8256  141.0255  170.9140 O.2     1  UNL1       -0.2745
     11 C         140.8598  139.8756  168.8264 C.3     1  UNL1        0.1116
     12 C         140.2915  139.6139  167.4631 C.ar    1  UNL1       -0.0130
     13 C         138.8065  139.6355  167.2528 C.ar    1  UNL1       -0.0025
     14 C         138.2383  139.3738  165.8895 C.ar    1  UNL1        0.0180
     15 C         139.1550  139.0905  164.7366 C.ar    1  UNL1        0.1057
     16 C         140.6400  139.0689  164.9469 C.ar    1  UNL1        0.0180
     17 C         141.2083  139.3306  166.3101 C.ar    1  UNL1       -0.0025
     18 S         138.5867  138.8288  163.3732 S.O2    1  UNL1        0.0104
     19 C         138.0184  138.5671  162.0100 C.3     1  UNL1        0.1816
     20 O         139.3056  137.5132  163.3261 O.2     1  UNL1       -0.1686
     21 O         137.8678  140.1445  163.4203 O.2     1  UNL1       -0.1686
     22 C         143.3933  142.8581  163.5885 C.3     1  UNL1        0.0991
     23 C         143.3032  141.7122  162.6247 C.ar    1  UNL1       -0.0062
     24 C         143.8814  140.3774  162.9905 C.ar    1  UNL1       -0.0030
     25 C         143.7913  139.2314  162.0267 C.ar    1  UNL1        0.0036
     26 C         143.1229  139.4204  160.6972 C.ar    1  UNL1        0.0714
     27 C         142.5447  140.7554  160.3315 C.ar    1  UNL1        0.0036
     28 C         142.6348  141.9012  161.2952 C.ar    1  UNL1       -0.0030
     29 C         143.0328  138.2746  159.7334 C.3     1  UNL1        0.4186
     30 F         142.9426  137.1288  158.7697 F       1  UNL1       -0.1659
     31 F         143.4647  139.1792  158.6176 F       1  UNL1       -0.1659
     32 F         142.6009  137.3701  160.8493 F       1  UNL1       -0.1659
@<TRIPOS>BOND
     1     7     8    1
     2     8     9   am
     3     9    10    2
     4     9    11    1
     5    11    12    1
     6    12    13   ar
     7    13    14   ar
     8    14    15   ar
     9    15    18    1
    10    18    19    1
    11    18    20    2
    12    18    21    2
    13    15    16   ar
    14    16    17   ar
    15     8     1    1
    16     1     2    1
    17     2     3    1
    18     3     4    1
    19     4    22    1
    20    22    23    1
    21    23    24   ar
    22    24    25   ar
    23    25    26   ar
    24    26    29    1
    25    29    30    1
    26    29    31    1
    27    29    32    1
    28    26    27   ar
    29    27    28   ar
    30     4     5    1
    31     5     6    1
    32    17    12   ar
    33     6     1    1
    34    28    23   ar
@<TRIPOS>MOLECULE
*****
 32 34 0 0 0
SMALL
GASTEIGER

@<TRIPOS>ATOM
      1 C         141.1200  138.6515  161.4623 C.3     1  UNL1        0.0782
      2 C         140.4529  139.9002  161.9578 C.3     1  UNL1        0.0372
      3 C         139.9927  139.9898  163.3827 C.3     1  UNL1        0.0741
      4 N         140.1996  138.8307  164.3120 N.3     1  UNL1       -0.2689
      5 C         140.8668  137.5819  163.8164 C.3     1  UNL1        0.0741
      6 C         141.3270  137.4923  162.3916 C.3     1  UNL1        0.0372
      7 C         140.5835  138.3311  158.9405 C.3     1  UNL1        0.1148
      8 N         141.5802  138.5619  160.0374 N.am    1  UNL1       -0.2790
      9 C         143.0372  138.7031  159.7096 C.2     1  UNL1        0.2301
     10 O         143.4974  138.6135  158.2847 O.2     1  UNL1       -0.2745
     11 C         144.0338  138.9339  160.8065 C.3     1  UNL1        0.1116
     12 C         144.0257  140.2265  161.5675 C.ar    1  UNL1       -0.0130
     13 C         144.0919  140.2150  163.0660 C.ar    1  UNL1       -0.0025
     14 C         144.0838  141.5076  163.8270 C.ar    1  UNL1        0.0180
     15 C         144.0095  142.8117  163.0894 C.ar    1  UNL1        0.1057
     16 C         143.9433  142.8231  161.5910 C.ar    1  UNL1        0.0180
     17 C         143.9514  141.5305  160.8300 C.ar    1  UNL1       -0.0025
     18 S         144.0014  144.1043  163.8504 S.O2    1  UNL1        0.0104
     19 C         143.9932  145.3969  164.6114 C.3     1  UNL1        0.1816
     20 O         144.1068  144.8639  162.5613 O.2     1  UNL1       -0.1686
     21 O         143.8959  143.3448  165.1396 O.2     1  UNL1       -0.1686
     22 C         139.7394  138.9203  165.7368 C.3     1  UNL1        0.0991
     23 C         140.4472  139.8288  166.6978 C.ar    1  UNL1       -0.0062
     24 C         141.9076  140.1196  166.5179 C.ar    1  UNL1       -0.0030
     25 C         142.6155  141.0281  167.4789 C.ar    1  UNL1        0.0036
     26 C         141.8628  141.6458  168.6199 C.ar    1  UNL1        0.0714
     27 C         140.4023  141.3550  168.7999 C.ar    1  UNL1        0.0036
     28 C         139.6945  140.4465  167.8389 C.ar    1  UNL1       -0.0030
     29 C         142.5706  142.5543  169.5810 C.3     1  UNL1        0.4186
     30 F         143.2784  143.4628  170.5420 F       1  UNL1       -0.1659
     31 F         143.7283  141.6017  169.6289 F       1  UNL1       -0.1659
     32 F         141.4129  143.5069  169.5330 F       1  UNL1       -0.1659
@<TRIPOS>BOND
     1     7     8    1
     2     8     9   am
     3     9    10    2
     4     9    11    1
     5    11    12    1
     6    12    13   ar
     7    13    14   ar
     8    14    15   ar
     9    15    18    1
    10    18    19    1
    11    18    20    2
    12    18    21    2
    13    15    16   ar
    14    16    17   ar
    15     8     1    1
    16     1     2    1
    17     2     3    1
    18     3     4    1
    19     4    22    1
    20    22    23    1
    21    23    24   ar
    22    24    25   ar
    23    25    26   ar
    24    26    29    1
    25    29    30    1
    26    29    31    1
    27    29    32    1
    28    26    27   ar
    29    27    28   ar
    30     4     5    1
    31     5     6    1
    32    17    12   ar
    33     6     1    1
    34    28    23   ar
@<TRIPOS>MOLECULE
*****
 32 34 0 0 0
SMALL
GASTEIGER

@<TRIPOS>ATOM
      1 C         140.2034  139.0058  160.2105 C.3     1  UNL1        0.0782
      2 C         139.9310  140.4750  160.3417 C.3     1  UNL1        0.0372
      3 C         139.1554  140.9920  161.5169 C.3     1  UNL1        0.0741
      4 N         138.6522  140.0398  162.5610 N.3     1  UNL1       -0.2689
      5 C         138.9245  138.5705  162.4298 C.3     1  UNL1        0.0741
      6 C         139.7001  138.0535  161.2546 C.3     1  UNL1        0.0372
      7 C         140.3162  138.3639  157.6956 C.3     1  UNL1        0.1148
      8 N         140.9790  138.4888  159.0353 N.am    1  UNL1       -0.2790
      9 C         142.4175  138.0966  159.1999 C.2     1  UNL1        0.2301
     10 O         143.1931  137.5796  158.0247 O.2     1  UNL1       -0.2745
     11 C         143.0803  138.2215  160.5397 C.3     1  UNL1        0.1116
     12 C         143.2070  139.5667  161.1914 C.ar    1  UNL1       -0.0130
     13 C         142.8184  139.7430  162.6294 C.ar    1  UNL1       -0.0025
     14 C         142.9451  141.0881  163.2810 C.ar    1  UNL1        0.0180
     15 C         143.4602  142.2569  162.4945 C.ar    1  UNL1        0.1057
     16 C         143.8488  142.0806  161.0565 C.ar    1  UNL1        0.0180
     17 C         143.7221  140.7355  160.4049 C.ar    1  UNL1       -0.0025
     18 S         143.5869  143.6021  163.1462 S.O2    1  UNL1        0.0104
     19 C         143.7135  144.9471  163.7979 C.3     1  UNL1        0.1816
     20 O         143.4322  142.9634  164.4946 O.2     1  UNL1       -0.1686
     21 O         143.7416  144.2408  161.7979 O.2     1  UNL1       -0.1686
     22 C         137.8766  140.5568  163.7362 C.3     1  UNL1        0.0991
     23 C         138.4361  140.4233  165.1215 C.ar    1  UNL1       -0.0062
     24 C         137.9958  139.2917  166.0022 C.ar    1  UNL1       -0.0030
     25 C         138.5553  139.1581  167.3876 C.ar    1  UNL1        0.0036
     26 C         139.5550  140.1560  167.8921 C.ar    1  UNL1        0.0714
     27 C         139.9953  141.2876  167.0113 C.ar    1  UNL1        0.0036
     28 C         139.4358  141.4212  165.6260 C.ar    1  UNL1       -0.0030
     29 C         140.1145  140.0225  169.2774 C.3     1  UNL1        0.4186
     30 F         140.6740  139.8889  170.6627 F       1  UNL1       -0.1659
     31 F         141.4387  139.6142  168.7032 F       1  UNL1       -0.1659
     32 F         138.7903  140.4307  169.8516 F       1  UNL1       -0.1659
@<TRIPOS>BOND
     1     7     8    1
     2     8     9   am
     3     9    10    2
     4     9    11    1
     5    11    12    1
     6    12    13   ar
     7    13    14   ar
     8    14    15   ar
     9    15    18    1
    10    18    19    1
    11    18    20    2
    12    18    21    2
    13    15    16   ar
    14    16    17   ar
    15     8     1    1
    16     1     2    1
    17     2     3    1
    18     3     4    1
    19     4    22    1
    20    22    23    1
    21    23    24   ar
    22    24    25   ar
    23    25    26   ar
    24    26    29    1
    25    29    30    1
    26    29    31    1
    27    29    32    1
    28    26    27   ar
    29    27    28   ar
    30     4     5    1
    31     5     6    1
    32    17    12   ar
    33     6     1    1
    34    28    23   ar
@<TRIPOS>MOLECULE
*****
 32 34 0 0 0
SMALL
GASTEIGER

@<TRIPOS>ATOM
      1 C         139.2687  142.7145  160.5863 C.3     1  UNL1        0.0782
      2 C         139.9109  141.3689  160.7501 C.3     1  UNL1        0.0372
      3 C         139.4759  140.4605  161.8617 C.3     1  UNL1        0.0741
      4 N         138.3987  140.8978  162.8095 N.3     1  UNL1       -0.2689
      5 C         137.7564  142.2435  162.6457 C.3     1  UNL1        0.0741
      6 C         138.1914  143.1518  161.5341 C.3     1  UNL1        0.0372
      7 C         139.1811  143.4108  158.0848 C.3     1  UNL1        0.1148
      8 N         139.7037  143.6229  159.4747 N.am    1  UNL1       -0.2790
      9 C         140.6614  144.7433  159.7530 C.2     1  UNL1        0.2301
     10 O         141.0965  145.6517  158.6414 O.2     1  UNL1       -0.2745
     11 C         141.1841  144.9554  161.1429 C.3     1  UNL1        0.1116
     12 C         142.0169  143.8954  161.8009 C.ar    1  UNL1       -0.0130
     13 C         141.7432  143.5011  163.2220 C.ar    1  UNL1       -0.0025
     14 C         142.5760  142.4412  163.8799 C.ar    1  UNL1        0.0180
     15 C         143.6825  141.7755  163.1168 C.ar    1  UNL1        0.1057
     16 C         143.9563  142.1698  161.6957 C.ar    1  UNL1        0.0180
     17 C         143.1235  143.2297  161.0377 C.ar    1  UNL1       -0.0025
     18 S         144.5153  140.7155  163.7748 S.O2    1  UNL1        0.0104
     19 C         145.3481  139.6556  164.4327 C.3     1  UNL1        0.1816
     20 O         143.2870  140.1574  164.4302 O.2     1  UNL1       -0.1686
     21 O         145.7436  141.2736  163.1193 O.2     1  UNL1       -0.1686
     22 C         137.9636  139.9895  163.9211 C.3     1  UNL1        0.0991
     23 C         138.5469  140.1512  165.2935 C.ar    1  UNL1       -0.0062
     24 C         139.5414  141.2415  165.5621 C.ar    1  UNL1       -0.0030
     25 C         140.1247  141.4032  166.9346 C.ar    1  UNL1        0.0036
     26 C         139.7134  140.4747  168.0385 C.ar    1  UNL1        0.0714
     27 C         138.7188  139.3844  167.7699 C.ar    1  UNL1        0.0036
     28 C         138.1356  139.2226  166.3974 C.ar    1  UNL1       -0.0030
     29 C         140.2966  140.6364  169.4109 C.3     1  UNL1        0.4186
     30 F         140.8798  140.7981  170.7834 F       1  UNL1       -0.1659
     31 F         139.4654  141.8676  169.6190 F       1  UNL1       -0.1659
     32 F         141.1277  139.4052  169.2028 F       1  UNL1       -0.1659
@<TRIPOS>BOND
     1     7     8    1
     2     8     9   am
     3     9    10    2
     4     9    11    1
     5    11    12    1
     6    12    13   ar
     7    13    14   ar
     8    14    15   ar
     9    15    18    1
    10    18    19    1
    11    18    20    2
    12    18    21    2
    13    15    16   ar
    14    16    17   ar
    15     8     1    1
    16     1     2    1
    17     2     3    1
    18     3     4    1
    19     4    22    1
    20    22    23    1
    21    23    24   ar
    22    24    25   ar
    23    25    26   ar
    24    26    29    1
    25    29    30    1
    26    29    31    1
    27    29    32    1
    28    26    27   ar
    29    27    28   ar
    30     4     5    1
    31     5     6    1
    32    17    12   ar
    33     6     1    1
    34    28    23   ar
