@<TRIPOS>MOLECULE
*****
 28 31 0 0 0
SMALL
GASTEIGER

@<TRIPOS>ATOM
      1 C         140.5682  144.1013  161.2293 C.2     1  UNL1        0.0620
      2 C         141.0884  142.7933  161.7478 C.2     1  UNL1        0.0622
      3 C         141.1036  142.5243  163.2234 C.2     1  UNL1        0.2254
      4 N         141.5537  141.3374  164.0226 N.2     1  UNL1       -0.0319
      5 C         141.3268  141.6427  165.4736 C.2     1  UNL1        0.4061
      6 N         140.7366  143.0182  165.5711 N.2     1  UNL1       -0.0486
      7 C         140.5986  143.5631  164.1804 C.3     1  UNL1        0.3025
      8 C         140.0784  144.8709  163.6619 C.2     1  UNL1        0.0474
      9 C         140.0632  145.1400  162.1863 C.2     1  UNL1        0.0714
     10 CL        139.5430  146.4479  161.6678 Cl      1  UNL1       -0.0811
     11 N         140.5225  144.9085  156.8025 N.3     1  UNL1       -0.2698
     12 C         139.5626  143.9195  157.3944 C.3     1  UNL1        0.0938
     13 C         139.5779  143.6504  158.8700 C.3     1  UNL1        0.1081
     14 N         140.5530  144.3704  159.7536 N.pl3   1  UNL1       -0.3039
     15 C         141.5129  145.3594  159.1617 C.3     1  UNL1        0.1081
     16 C         141.4976  145.6284  157.6861 C.3     1  UNL1        0.0938
     17 C         139.9433  146.4659  154.8052 C.3     1  UNL1        0.0188
     18 C         140.5074  145.1776  155.3269 C.3     1  UNL1        0.0722
     19 C         141.6359  140.7322  166.6249 C.2     1  UNL1        0.2593
     20 O         142.8692  139.8790  166.5962 O.2     1  UNL1       -0.2832
     21 C         140.7117  140.6751  167.8050 C.3     1  UNL1        0.0641
     22 C         139.9355  139.8452  166.8258 C.3     1  UNL1        0.0080
     23 C         141.8090  141.5248  168.3743 C.3     1  UNL1        0.0153
     24 C         141.7124  142.0291  169.7837 C.3     1  UNL1        0.0649
     25 C         140.5186  141.6837  170.6237 C.2     1  UNL1        0.1507
     26 O         140.4220  142.1881  172.0331 O.2     1  UNL1       -0.2961
     27 C         139.4214  140.8341  170.0543 C.3     1  UNL1        0.0649
     28 C         139.5179  140.3297  168.6450 C.3     1  UNL1        0.0153
@<TRIPOS>BOND
     1    17    18    1
     2    18    11    1
     3    11    12    1
     4    12    13    1
     5    13    14    1
     6    14     1    1
     7     1     2    2
     8     2     3    1
     9     3     4    2
    10     4     5    1
    11     5    19    1
    12    19    20    2
    13    19    21    1
    14    21    22    1
    15    21    23    1
    16    23    24    1
    17    24    25    1
    18    25    26    2
    19    25    27    1
    20    27    28    1
    21     5     6    2
    22     6     7    1
    23     7     8    1
    24     8     9    2
    25     9    10    1
    26    14    15    1
    27    15    16    1
    28    16    11    1
    29     9     1    1
    30     7     3    1
    31    28    21    1
@<TRIPOS>MOLECULE
*****
 28 31 0 0 0
SMALL
GASTEIGER

@<TRIPOS>ATOM
      1 C         139.4674  139.7481  161.3399 C.2     1  UNL1        0.0620
      2 C         140.6056  140.5623  161.8802 C.2     1  UNL1        0.0622
      3 C         140.8646  140.6018  163.3571 C.2     1  UNL1        0.2254
      4 N         141.9034  141.3099  164.1753 N.2     1  UNL1       -0.0319
      5 C         141.6663  140.9730  165.6176 C.2     1  UNL1        0.4061
      6 N         140.4810  140.0566  165.6908 N.2     1  UNL1       -0.0486
      7 C         139.9855  139.8272  164.2937 C.3     1  UNL1        0.3025
      8 C         138.8474  139.0131  163.7534 C.2     1  UNL1        0.0474
      9 C         138.5884  138.9736  162.2764 C.2     1  UNL1        0.0714
     10 CL        137.4503  138.1594  161.7362 Cl      1  UNL1       -0.0811
     11 N         138.6903  139.6296  156.9090 N.3     1  UNL1       -0.2698
     12 C         138.0111  140.6594  157.7623 C.3     1  UNL1        0.0938
     13 C         138.2701  140.6989  159.2392 C.3     1  UNL1        0.1081
     14 N         139.2084  139.7086  159.8629 N.pl3   1  UNL1       -0.3039
     15 C         139.8876  138.6788  159.0096 C.3     1  UNL1        0.1081
     16 C         139.6286  138.6392  157.5327 C.3     1  UNL1        0.0938
     17 C         139.4916  139.0867  154.4979 C.3     1  UNL1        0.0188
     18 C         138.4313  139.5900  155.4321 C.3     1  UNL1        0.0722
     19 C         142.4729  141.4658  166.7823 C.2     1  UNL1        0.2593
     20 O         143.5515  142.4863  166.5694 O.2     1  UNL1       -0.2832
     21 C         142.2010  140.9382  168.1598 C.3     1  UNL1        0.0641
     22 C         142.8582  139.7376  167.5460 C.3     1  UNL1        0.0080
     23 C         141.6383  142.3221  168.2951 C.3     1  UNL1        0.0153
     24 C         141.0319  142.7613  169.5949 C.3     1  UNL1        0.0649
     25 C         140.9882  141.8167  170.7593 C.2     1  UNL1        0.1507
     26 O         140.3818  142.2560  172.0590 O.2     1  UNL1       -0.2961
     27 C         141.5509  140.4329  170.6239 C.3     1  UNL1        0.0649
     28 C         142.1573  139.9936  169.3242 C.3     1  UNL1        0.0153
@<TRIPOS>BOND
     1    17    18    1
     2    18    11    1
     3    11    12    1
     4    12    13    1
     5    13    14    1
     6    14     1    1
     7     1     2    2
     8     2     3    1
     9     3     4    2
    10     4     5    1
    11     5    19    1
    12    19    20    2
    13    19    21    1
    14    21    22    1
    15    21    23    1
    16    23    24    1
    17    24    25    1
    18    25    26    2
    19    25    27    1
    20    27    28    1
    21     5     6    2
    22     6     7    1
    23     7     8    1
    24     8     9    2
    25     9    10    1
    26    14    15    1
    27    15    16    1
    28    16    11    1
    29     9     1    1
    30     7     3    1
    31    28    21    1
@<TRIPOS>MOLECULE
*****
 28 31 0 0 0
SMALL
GASTEIGER

@<TRIPOS>ATOM
      1 C         139.2932  140.3692  162.1820 C.2     1  UNL1        0.0620
      2 C         139.8545  141.1559  163.3293 C.2     1  UNL1        0.0622
      3 C         139.7442  140.6250  164.7278 C.2     1  UNL1        0.2254
      4 N         140.1994  141.1726  166.0480 N.2     1  UNL1       -0.0319
      5 C         139.8091  140.1935  167.1153 C.2     1  UNL1        0.4061
      6 N         139.1127  139.0408  166.4547 N.2     1  UNL1       -0.0486
      7 C         139.0726  139.3075  164.9791 C.3     1  UNL1        0.3025
      8 C         138.5114  138.5208  163.8319 C.2     1  UNL1        0.0474
      9 C         138.6217  139.0517  162.4333 C.2     1  UNL1        0.0714
     10 CL        138.0604  138.2650  161.2861 Cl      1  UNL1       -0.0811
     11 N         139.6242  141.9618  157.9863 N.3     1  UNL1       -0.2698
     12 C         138.6046  142.5326  158.9269 C.3     1  UNL1        0.0938
     13 C         138.4943  142.0017  160.3254 C.3     1  UNL1        0.1081
     14 N         139.4036  140.9001  160.7834 N.pl3   1  UNL1       -0.3039
     15 C         140.4231  140.3293  159.8428 C.3     1  UNL1        0.1081
     16 C         140.5334  140.8602  158.4442 C.3     1  UNL1        0.0938
     17 C         141.0049  142.3051  155.8124 C.3     1  UNL1        0.0188
     18 C         139.7346  142.4926  156.5877 C.3     1  UNL1        0.0722
     19 C         140.0694  140.3411  168.5851 C.2     1  UNL1        0.2593
     20 O         138.9694  140.0820  169.5714 O.2     1  UNL1       -0.2832
     21 C         141.4298  140.7479  169.0687 C.3     1  UNL1        0.0641
     22 C         141.7462  139.3917  168.5115 C.3     1  UNL1        0.0080
     23 C         140.6409  141.9629  169.4580 C.3     1  UNL1        0.0153
     24 C         141.3222  143.1137  170.1373 C.3     1  UNL1        0.0649
     25 C         142.7926  143.0495  170.4274 C.2     1  UNL1        0.1507
     26 O         143.4739  144.2003  171.1067 O.2     1  UNL1       -0.2961
     27 C         143.5814  141.8345  170.0381 C.3     1  UNL1        0.0649
     28 C         142.9000  140.6837  169.3588 C.3     1  UNL1        0.0153
@<TRIPOS>BOND
     1    17    18    1
     2    18    11    1
     3    11    12    1
     4    12    13    1
     5    13    14    1
     6    14     1    1
     7     1     2    2
     8     2     3    1
     9     3     4    2
    10     4     5    1
    11     5    19    1
    12    19    20    2
    13    19    21    1
    14    21    22    1
    15    21    23    1
    16    23    24    1
    17    24    25    1
    18    25    26    2
    19    25    27    1
    20    27    28    1
    21     5     6    2
    22     6     7    1
    23     7     8    1
    24     8     9    2
    25     9    10    1
    26    14    15    1
    27    15    16    1
    28    16    11    1
    29     9     1    1
    30     7     3    1
    31    28    21    1
@<TRIPOS>MOLECULE
*****
 28 31 0 0 0
SMALL
GASTEIGER

@<TRIPOS>ATOM
      1 C         142.1769  140.0719  161.2919 C.2     1  UNL1        0.0620
      2 C         142.9153  139.5632  162.4944 C.2     1  UNL1        0.0622
      3 C         142.5004  139.9981  163.8686 C.2     1  UNL1        0.2254
      4 N         143.0345  139.6660  165.2304 N.2     1  UNL1       -0.0319
      5 C         142.2112  140.4044  166.2439 C.2     1  UNL1        0.4061
      6 N         141.1684  141.1929  165.5084 N.2     1  UNL1       -0.0486
      7 C         141.3471  140.9418  164.0404 C.3     1  UNL1        0.3025
      8 C         140.6087  141.4504  162.8379 C.2     1  UNL1        0.0474
      9 C         141.0236  141.0154  161.4636 C.2     1  UNL1        0.0714
     10 CL        140.2852  141.5242  160.2611 Cl      1  UNL1       -0.0811
     11 N         143.4215  138.7670  157.1689 N.3     1  UNL1       -0.2698
     12 C         143.8037  140.1274  157.6724 C.3     1  UNL1        0.0938
     13 C         143.3888  140.5623  159.0466 C.3     1  UNL1        0.1081
     14 N         142.5918  139.6369  159.9175 N.pl3   1  UNL1       -0.3039
     15 C         142.2096  138.2766  159.4140 C.3     1  UNL1        0.1081
     16 C         142.6245  137.8417  158.0398 C.3     1  UNL1        0.0938
     17 C         144.2394  136.9083  155.5484 C.3     1  UNL1        0.0188
     18 C         143.8364  138.3320  155.7947 C.3     1  UNL1        0.0722
     19 C         142.3980  140.3619  167.7316 C.2     1  UNL1        0.2593
     20 O         142.9318  139.1218  168.3853 O.2     1  UNL1       -0.2832
     21 C         142.0510  141.5594  168.5656 C.3     1  UNL1        0.0641
     22 C         143.3789  141.9966  168.0219 C.3     1  UNL1        0.0080
     23 C         140.8436  140.7063  168.8196 C.3     1  UNL1        0.0153
     24 C         139.7504  141.2026  169.7188 C.3     1  UNL1        0.0649
     25 C         139.8646  142.5520  170.3640 C.2     1  UNL1        0.1507
     26 O         138.7714  143.0482  171.2633 O.2     1  UNL1       -0.2961
     27 C         141.0720  143.4050  170.1100 C.3     1  UNL1        0.0649
     28 C         142.1652  142.9087  169.2108 C.3     1  UNL1        0.0153
@<TRIPOS>BOND
     1    17    18    1
     2    18    11    1
     3    11    12    1
     4    12    13    1
     5    13    14    1
     6    14     1    1
     7     1     2    2
     8     2     3    1
     9     3     4    2
    10     4     5    1
    11     5    19    1
    12    19    20    2
    13    19    21    1
    14    21    22    1
    15    21    23    1
    16    23    24    1
    17    24    25    1
    18    25    26    2
    19    25    27    1
    20    27    28    1
    21     5     6    2
    22     6     7    1
    23     7     8    1
    24     8     9    2
    25     9    10    1
    26    14    15    1
    27    15    16    1
    28    16    11    1
    29     9     1    1
    30     7     3    1
    31    28    21    1
@<TRIPOS>MOLECULE
*****
 28 31 0 0 0
SMALL
GASTEIGER

@<TRIPOS>ATOM
      1 C         140.5723  140.0915  161.9783 C.2     1  UNL1        0.0620
      2 C         140.3304  140.7908  163.2832 C.2     1  UNL1        0.0622
      3 C         141.0643  140.3529  164.5160 C.2     1  UNL1        0.2254
      4 N         141.0329  140.8478  165.9316 N.2     1  UNL1       -0.0319
      5 C         141.9893  140.0166  166.7345 C.2     1  UNL1        0.4061
      6 N         142.6116  139.0080  165.8150 N.2     1  UNL1       -0.0486
      7 C         142.0399  139.2159  164.4439 C.3     1  UNL1        0.3025
      8 C         142.2817  138.5167  163.1390 C.2     1  UNL1        0.0474
      9 C         141.5479  138.9546  161.9063 C.2     1  UNL1        0.0714
     10 CL        141.7897  138.2553  160.6014 Cl      1  UNL1       -0.0811
     11 N         138.3706  141.4051  158.2800 N.3     1  UNL1       -0.2698
     12 C         137.8116  140.3069  159.1353 C.3     1  UNL1        0.0938
     13 C         138.5455  139.8690  160.3680 C.3     1  UNL1        0.1081
     14 N         139.8384  140.5294  160.7455 N.pl3   1  UNL1       -0.3039
     15 C         140.3973  141.6276  159.8903 C.3     1  UNL1        0.1081
     16 C         139.6634  142.0655  158.6575 C.3     1  UNL1        0.0938
     17 C         138.0166  143.1228  156.3632 C.3     1  UNL1        0.0188
     18 C         137.6368  141.8430  157.0472 C.3     1  UNL1        0.0722
     19 C         142.2734  140.1675  168.1996 C.2     1  UNL1        0.2593
     20 O         142.8239  139.0107  168.9798 O.2     1  UNL1       -0.2832
     21 C         142.0070  141.4751  168.8844 C.3     1  UNL1        0.0641
     22 C         143.3488  141.7661  168.2804 C.3     1  UNL1        0.0080
     23 C         140.7576  140.7300  169.2506 C.3     1  UNL1        0.0153
     24 C         139.7079  141.3936  170.0919 C.3     1  UNL1        0.0649
     25 C         139.9075  142.8024  170.5670 C.2     1  UNL1        0.1507
     26 O         138.8578  143.4659  171.4083 O.2     1  UNL1       -0.2961
     27 C         141.1568  143.5474  170.2008 C.3     1  UNL1        0.0649
     28 C         142.2066  142.8838  169.3595 C.3     1  UNL1        0.0153
@<TRIPOS>BOND
     1    17    18    1
     2    18    11    1
     3    11    12    1
     4    12    13    1
     5    13    14    1
     6    14     1    1
     7     1     2    2
     8     2     3    1
     9     3     4    2
    10     4     5    1
    11     5    19    1
    12    19    20    2
    13    19    21    1
    14    21    22    1
    15    21    23    1
    16    23    24    1
    17    24    25    1
    18    25    26    2
    19    25    27    1
    20    27    28    1
    21     5     6    2
    22     6     7    1
    23     7     8    1
    24     8     9    2
    25     9    10    1
    26    14    15    1
    27    15    16    1
    28    16    11    1
    29     9     1    1
    30     7     3    1
    31    28    21    1
@<TRIPOS>MOLECULE
*****
 28 31 0 0 0
SMALL
GASTEIGER

@<TRIPOS>ATOM
      1 C         141.7211  139.3572  162.9488 C.2     1  UNL1        0.0620
      2 C         140.9935  139.8503  164.1644 C.2     1  UNL1        0.0622
      3 C         141.6392  139.7551  165.5149 C.2     1  UNL1        0.2254
      4 N         141.1699  140.1554  166.8822 N.2     1  UNL1       -0.0319
      5 C         142.2532  139.8146  167.8622 C.2     1  UNL1        0.4061
      6 N         143.3920  139.2038  167.1006 N.2     1  UNL1       -0.0486
      7 C         143.0125  139.1670  165.6499 C.3     1  UNL1        0.3025
      8 C         143.7401  138.6741  164.4343 C.2     1  UNL1        0.0474
      9 C         143.0943  138.7692  163.0838 C.2     1  UNL1        0.0714
     10 CL        143.8220  138.2762  161.8682 Cl      1  UNL1       -0.0811
     11 N         139.7839  139.6426  158.8971 N.3     1  UNL1       -0.2698
     12 C         140.6771  140.7464  159.3808 C.3     1  UNL1        0.0938
     13 C         141.3228  140.6512  160.7313 C.3     1  UNL1        0.1081
     14 N         141.0753  139.4524  161.5982 N.pl3   1  UNL1       -0.3039
     15 C         140.1821  138.3486  161.1145 C.3     1  UNL1        0.1081
     16 C         139.5364  138.4438  159.7640 C.3     1  UNL1        0.0938
     17 C         139.9368  139.4450  156.3111 C.3     1  UNL1        0.0188
     18 C         139.1381  139.7377  157.5466 C.3     1  UNL1        0.0722
     19 C         142.2060  140.0443  169.3438 C.2     1  UNL1        0.2593
     20 O         143.2448  139.4264  170.2320 O.2     1  UNL1       -0.2832
     21 C         141.1199  140.8918  169.9371 C.3     1  UNL1        0.0641
     22 C         140.6104  139.5272  170.2954 C.3     1  UNL1        0.0080
     23 C         142.0065  141.9621  169.3728 C.3     1  UNL1        0.0153
     24 C         141.6302  143.4060  169.5263 C.3     1  UNL1        0.0649
     25 C         140.3671  143.7796  170.2440 C.2     1  UNL1        0.1507
     26 O         139.9908  145.2235  170.3975 O.2     1  UNL1       -0.2961
     27 C         139.4805  142.7094  170.8083 C.3     1  UNL1        0.0649
     28 C         139.8569  141.2655  170.6549 C.3     1  UNL1        0.0153
@<TRIPOS>BOND
     1    17    18    1
     2    18    11    1
     3    11    12    1
     4    12    13    1
     5    13    14    1
     6    14     1    1
     7     1     2    2
     8     2     3    1
     9     3     4    2
    10     4     5    1
    11     5    19    1
    12    19    20    2
    13    19    21    1
    14    21    22    1
    15    21    23    1
    16    23    24    1
    17    24    25    1
    18    25    26    2
    19    25    27    1
    20    27    28    1
    21     5     6    2
    22     6     7    1
    23     7     8    1
    24     8     9    2
    25     9    10    1
    26    14    15    1
    27    15    16    1
    28    16    11    1
    29     9     1    1
    30     7     3    1
    31    28    21    1
@<TRIPOS>MOLECULE
*****
 28 31 0 0 0
SMALL
GASTEIGER

@<TRIPOS>ATOM
      1 C         140.5773  139.1674  161.3910 C.2     1  UNL1        0.0620
      2 C         141.8607  138.5850  160.8771 C.2     1  UNL1        0.0622
      3 C         141.9738  138.1709  159.4398 C.2     1  UNL1        0.2254
      4 N         143.1021  137.5718  158.6538 N.2     1  UNL1       -0.0319
      5 C         142.6294  137.3698  157.2447 C.2     1  UNL1        0.4061
      6 N         141.2088  137.8440  157.1598 N.2     1  UNL1       -0.0486
      7 C         140.8037  138.3392  158.5165 C.3     1  UNL1        0.3025
      8 C         139.5204  138.9215  159.0304 C.2     1  UNL1        0.0474
      9 C         139.4073  139.3356  160.4677 C.2     1  UNL1        0.0714
     10 CL        138.1240  139.9180  160.9816 Cl      1  UNL1       -0.0811
     11 N         140.2379  140.4097  165.7028 N.3     1  UNL1       -0.2698
     12 C         140.6500  141.4105  164.6642 C.3     1  UNL1        0.0938
     13 C         140.7631  140.9964  163.2269 C.3     1  UNL1        0.1081
     14 N         140.4642  139.5815  162.8283 N.pl3   1  UNL1       -0.3039
     15 C         140.0522  138.5808  163.8669 C.3     1  UNL1        0.1081
     16 C         139.9391  138.9949  165.3042 C.3     1  UNL1        0.0938
     17 C         139.3827  139.9573  168.1140 C.3     1  UNL1        0.0188
     18 C         140.1248  140.8238  167.1400 C.3     1  UNL1        0.0722
     19 C         143.4356  136.7945  156.1181 C.2     1  UNL1        0.2593
     20 O         144.7517  137.4108  155.7466 O.2     1  UNL1       -0.2832
     21 C         142.9257  135.6029  155.3631 C.3     1  UNL1        0.0641
     22 C         142.7928  136.6579  154.3051 C.3     1  UNL1        0.0080
     23 C         143.2356  134.9617  156.6833 C.3     1  UNL1        0.0153
     24 C         142.9895  133.4952  156.8810 C.3     1  UNL1        0.0649
     25 C         142.4334  132.6700  155.7585 C.2     1  UNL1        0.1507
     26 O         142.1873  131.2036  155.9563 O.2     1  UNL1       -0.2961
     27 C         142.1235  133.3113  154.4384 C.3     1  UNL1        0.0649
     28 C         142.3696  134.7777  154.2407 C.3     1  UNL1        0.0153
@<TRIPOS>BOND
     1    17    18    1
     2    18    11    1
     3    11    12    1
     4    12    13    1
     5    13    14    1
     6    14     1    1
     7     1     2    2
     8     2     3    1
     9     3     4    2
    10     4     5    1
    11     5    19    1
    12    19    20    2
    13    19    21    1
    14    21    22    1
    15    21    23    1
    16    23    24    1
    17    24    25    1
    18    25    26    2
    19    25    27    1
    20    27    28    1
    21     5     6    2
    22     6     7    1
    23     7     8    1
    24     8     9    2
    25     9    10    1
    26    14    15    1
    27    15    16    1
    28    16    11    1
    29     9     1    1
    30     7     3    1
    31    28    21    1
@<TRIPOS>MOLECULE
*****
 28 31 0 0 0
SMALL
GASTEIGER

@<TRIPOS>ATOM
      1 C         140.1783  143.0883  164.0561 C.2     1  UNL1        0.0620
      2 C         140.8710  142.6350  162.8052 C.2     1  UNL1        0.0622
      3 C         140.7105  143.4153  161.5342 C.2     1  UNL1        0.2254
      4 N         141.2663  143.2136  160.1557 N.2     1  UNL1       -0.0319
      5 C         140.7566  144.3225  159.2836 C.2     1  UNL1        0.4061
      6 N         139.8857  145.2095  160.1232 N.2     1  UNL1       -0.0486
      7 C         139.8572  144.6488  161.5141 C.3     1  UNL1        0.3025
      8 C         139.1645  145.1020  162.7650 C.2     1  UNL1        0.0474
      9 C         139.3251  144.3217  164.0360 C.2     1  UNL1        0.0714
     10 CL        138.6323  144.7750  165.2869 Cl      1  UNL1       -0.0811
     11 N         140.6601  140.7474  167.8691 N.3     1  UNL1       -0.2698
     12 C         141.6127  141.8604  167.5469 C.3     1  UNL1        0.0938
     13 C         141.4521  142.6407  166.2759 C.3     1  UNL1        0.1081
     14 N         140.3389  142.3079  165.3271 N.pl3   1  UNL1       -0.3039
     15 C         139.3863  141.1950  165.6493 C.3     1  UNL1        0.1081
     16 C         139.5469  140.4147  166.9203 C.3     1  UNL1        0.0938
     17 C         139.9471  140.2698  170.3213 C.3     1  UNL1        0.0188
     18 C         140.8206  139.9671  169.1400 C.3     1  UNL1        0.0722
     19 C         141.0638  144.5114  157.8276 C.2     1  UNL1        0.2593
     20 O         142.4611  144.3043  157.3229 O.2     1  UNL1       -0.2832
     21 C         139.9738  144.9073  156.8763 C.3     1  UNL1        0.0641
     22 C         140.7656  146.1808  156.9096 C.3     1  UNL1        0.0080
     23 C         139.5605  143.4962  157.1733 C.3     1  UNL1        0.0153
     24 C         138.3322  142.9233  156.5307 C.3     1  UNL1        0.0649
     25 C         137.5171  143.7616  155.5909 C.2     1  UNL1        0.1507
     26 O         136.2888  143.1887  154.9482 O.2     1  UNL1       -0.2961
     27 C         137.9304  145.1725  155.2939 C.3     1  UNL1        0.0649
     28 C         139.1587  145.7454  155.9366 C.3     1  UNL1        0.0153
@<TRIPOS>BOND
     1    17    18    1
     2    18    11    1
     3    11    12    1
     4    12    13    1
     5    13    14    1
     6    14     1    1
     7     1     2    2
     8     2     3    1
     9     3     4    2
    10     4     5    1
    11     5    19    1
    12    19    20    2
    13    19    21    1
    14    21    22    1
    15    21    23    1
    16    23    24    1
    17    24    25    1
    18    25    26    2
    19    25    27    1
    20    27    28    1
    21     5     6    2
    22     6     7    1
    23     7     8    1
    24     8     9    2
    25     9    10    1
    26    14    15    1
    27    15    16    1
    28    16    11    1
    29     9     1    1
    30     7     3    1
    31    28    21    1
@<TRIPOS>MOLECULE
*****
 28 31 0 0 0
SMALL
GASTEIGER

@<TRIPOS>ATOM
      1 C         140.3839  139.3603  164.2548 C.2     1  UNL1        0.0620
      2 C         140.8955  140.0120  163.0043 C.2     1  UNL1        0.0622
      3 C         140.3937  139.5613  161.6646 C.2     1  UNL1        0.2254
      4 N         140.7122  140.0123  160.2699 N.2     1  UNL1       -0.0319
      5 C         139.8956  139.1887  159.3186 C.2     1  UNL1        0.4061
      6 N         139.0725  138.2287  160.1254 N.2     1  UNL1       -0.0486
      7 C         139.3803  138.4589  161.5753 C.3     1  UNL1        0.3025
      8 C         138.8688  137.8073  162.8257 C.2     1  UNL1        0.0474
      9 C         139.3707  138.2580  164.1655 C.2     1  UNL1        0.0714
     10 CL        138.8591  137.6063  165.4160 Cl      1  UNL1       -0.0811
     11 N         141.8895  140.7123  168.2743 N.3     1  UNL1       -0.2698
     12 C         142.6282  139.6503  167.5152 C.3     1  UNL1        0.0938
     13 C         142.1264  139.1996  166.1754 C.3     1  UNL1        0.1081
     14 N         140.8858  139.8110  165.5947 N.pl3   1  UNL1       -0.3039
     15 C         140.1471  140.8731  166.3538 C.3     1  UNL1        0.1081
     16 C         140.6489  141.3237  167.6936 C.3     1  UNL1        0.0938
     17 C         143.5685  142.0886  169.7015 C.3     1  UNL1        0.0188
     18 C         142.3912  141.1631  169.6140 C.3     1  UNL1        0.0722
     19 C         139.9012  139.3047  157.8231 C.2     1  UNL1        0.2593
     20 O         138.6175  139.1836  157.0567 O.2     1  UNL1       -0.2832
     21 C         141.1905  139.5418  157.0941 C.3     1  UNL1        0.0641
     22 C         140.6331  140.9344  157.0971 C.3     1  UNL1        0.0080
     23 C         141.3001  138.0669  157.3442 C.3     1  UNL1        0.0153
     24 C         142.5054  137.3126  156.8663 C.3     1  UNL1        0.0649
     25 C         143.6012  138.0334  156.1383 C.2     1  UNL1        0.1507
     26 O         144.8065  137.2792  155.6604 O.2     1  UNL1       -0.2961
     27 C         143.4915  139.5083  155.8882 C.3     1  UNL1        0.0649
     28 C         142.2862  140.2625  156.3661 C.3     1  UNL1        0.0153
@<TRIPOS>BOND
     1    17    18    1
     2    18    11    1
     3    11    12    1
     4    12    13    1
     5    13    14    1
     6    14     1    1
     7     1     2    2
     8     2     3    1
     9     3     4    2
    10     4     5    1
    11     5    19    1
    12    19    20    2
    13    19    21    1
    14    21    22    1
    15    21    23    1
    16    23    24    1
    17    24    25    1
    18    25    26    2
    19    25    27    1
    20    27    28    1
    21     5     6    2
    22     6     7    1
    23     7     8    1
    24     8     9    2
    25     9    10    1
    26    14    15    1
    27    15    16    1
    28    16    11    1
    29     9     1    1
    30     7     3    1
    31    28    21    1
