@<TRIPOS>MOLECULE
*****
 33 37 0 0 0
SMALL
GASTEIGER

@<TRIPOS>ATOM
      1 N         138.4721  139.4871  164.1809 N.am    1  UNL1       -0.2484
      2 C         139.6297  138.9803  163.3726 C.2     1  UNL1        0.3260
      3 O         140.8357  138.4152  164.0625 O.2     1  UNL1       -0.2488
      4 N         139.5812  139.0387  161.8745 N.ar    1  UNL1       -0.2453
      5 C         138.4486  139.5736  161.0493 C.ar    1  UNL1        0.0857
      6 C         138.8242  139.4379  159.6034 C.ar    1  UNL1        0.0223
      7 C         140.1889  138.8190  159.5351 C.ar    1  UNL1        0.0392
      8 C         141.0660  138.4482  158.3761 C.ar    1  UNL1        0.0422
      9 C         142.4109  137.8308  158.6208 C.ar    1  UNL1        0.1664
     10 C         142.8787  137.5840  160.0245 C.ar    1  UNL1        0.1379
     11 N         142.0016  137.9548  161.1835 N.ar    1  UNL1       -0.2231
     12 C         140.6567  138.5723  160.9388 C.ar    1  UNL1        0.1511
     13 H         137.6805  139.8580  163.7281 H       1  UNL1        0.1581
     14 C         139.1826  139.8054  167.9834 C.ar    1  UNL1        0.1549
     15 C         139.4994  140.1492  166.5581 C.ar    1  UNL1        0.0734
     16 C         138.5206  139.4288  165.6789 C.ar    1  UNL1        0.1773
     17 N         137.5988  138.6397  166.5609 N.ar    1  UNL1       -0.0620
     18 O         138.0080  138.8726  167.9851 O.2     1  UNL1       -0.3565
     19 C         138.6366  140.2604  169.9821 C.3     1  UNL1        0.0076
     20 C         139.9123  140.3066  169.1943 C.3     1  UNL1        0.0539
     21 C         141.1880  140.3527  168.4065 C.3     1  UNL1        0.0076
     22 C         140.6420  140.8077  170.4052 C.3     1  UNL1        0.0076
     23 O         143.2880  137.4600  157.4618 O.3     1  UNL1       -0.4347
     24 C         142.8007  136.4804  156.4357 C.ar    1  UNL1        0.2295
     25 N         142.2521  136.9732  155.1294 N.ar    1  UNL1       -0.1893
     26 C         141.7647  135.9936  154.1033 C.ar    1  UNL1        0.2012
     27 N         141.8260  134.5212  154.3835 N.ar    1  UNL1       -0.2270
     28 C         142.3745  134.0285  155.6897 C.ar    1  UNL1        0.0785
     29 C         142.8619  135.0081  156.7158 C.ar    1  UNL1        0.0621
     30 C         143.3473  134.2318  157.9040 C.3     1  UNL1        0.1019
     31 N         143.1599  132.7724  157.6122 N.3     1  UNL1       -0.2886
     32 C         142.5587  132.6468  156.2437 C.3     1  UNL1        0.1153
     33 H         142.5351  132.3585  158.3041 H       1  UNL1        0.1239
@<TRIPOS>BOND
     1    19    20    1
     2    20    21    1
     3    20    22    1
     4    20    14    1
     5    14    15   ar
     6    15    16   ar
     7    16     1    1
     8     1     2   am
     9     2     3    2
    10     2     4   am
    11     4     5   ar
    12     5     6   ar
    13     6     7   ar
    14     7     8   ar
    15     8     9   ar
    16     9    23    1
    17    23    24    1
    18    24    25   ar
    19    25    26   ar
    20    26    27   ar
    21    27    28   ar
    22    28    29   ar
    23    29    30    1
    24    30    31    1
    25    31    32    1
    26     9    10   ar
    27    10    11   ar
    28    11    12   ar
    29    16    17   ar
    30    17    18   ar
    31    18    14   ar
    32    12     4   ar
    33    12     7   ar
    34    29    24   ar
    35    32    28    1
    36     1    13    1
    37    31    33    1
@<TRIPOS>MOLECULE
*****
 33 37 0 0 0
SMALL
GASTEIGER

@<TRIPOS>ATOM
      1 N         138.5337  139.5342  164.1801 N.am    1  UNL1       -0.2484
      2 C         139.6761  138.9951  163.3710 C.2     1  UNL1        0.3260
      3 O         140.8582  138.3801  164.0596 O.2     1  UNL1       -0.2488
      4 N         139.6363  139.0711  161.8735 N.ar    1  UNL1       -0.2453
      5 C         138.5272  139.6549  161.0495 C.ar    1  UNL1        0.0857
      6 C         138.9040  139.5213  159.6038 C.ar    1  UNL1        0.0223
      7 C         140.2461  138.8549  159.5343 C.ar    1  UNL1        0.0392
      8 C         141.1145  138.4655  158.3749 C.ar    1  UNL1        0.0422
      9 C         142.4355  137.7979  158.6183 C.ar    1  UNL1        0.1664
     10 C         142.8881  137.5197  160.0211 C.ar    1  UNL1        0.1379
     11 N         142.0197  137.9091  161.1805 N.ar    1  UNL1       -0.2231
     12 C         140.6987  138.5767  160.9371 C.ar    1  UNL1        0.1511
     13 H         137.7578  139.9379  163.7281 H       1  UNL1        0.1581
     14 C         139.2138  139.8181  167.9909 C.ar    1  UNL1        0.1549
     15 C         139.5336  140.1851  166.5720 C.ar    1  UNL1        0.0734
     16 C         138.5736  139.4582  165.6776 C.ar    1  UNL1        0.1773
     17 N         137.6604  138.6420  166.5436 N.ar    1  UNL1       -0.0620
     18 O         138.0561  138.8645  167.9732 O.2     1  UNL1       -0.3565
     19 C         141.2014  140.4162  168.4287 C.3     1  UNL1        0.0076
     20 C         139.9265  140.3171  169.2127 C.3     1  UNL1        0.0539
     21 C         138.6515  140.2181  169.9968 C.3     1  UNL1        0.0076
     22 C         140.6391  140.8161  170.4346 C.3     1  UNL1        0.0076
     23 O         143.3040  137.4085  157.4589 O.3     1  UNL1       -0.4347
     24 C         143.0792  136.1007  156.7594 C.ar    1  UNL1        0.2295
     25 N         143.2152  134.8125  157.5158 N.ar    1  UNL1       -0.1893
     26 C         142.9904  133.5048  156.8164 C.ar    1  UNL1        0.2012
     27 N         142.6295  133.4852  155.3605 N.ar    1  UNL1       -0.2270
     28 C         142.4935  134.7734  154.6042 C.ar    1  UNL1        0.0785
     29 C         142.7183  136.0811  155.3036 C.ar    1  UNL1        0.0621
     30 C         142.5150  137.1818  154.3051 C.3     1  UNL1        0.1019
     31 N         142.1645  136.5544  152.9885 N.3     1  UNL1       -0.2886
     32 C         142.1512  135.0659  153.1733 C.3     1  UNL1        0.1153
     33 H         142.8597  136.8099  152.2872 H       1  UNL1        0.1239
@<TRIPOS>BOND
     1    19    20    1
     2    20    21    1
     3    20    22    1
     4    20    14    1
     5    14    15   ar
     6    15    16   ar
     7    16     1    1
     8     1     2   am
     9     2     3    2
    10     2     4   am
    11     4     5   ar
    12     5     6   ar
    13     6     7   ar
    14     7     8   ar
    15     8     9   ar
    16     9    23    1
    17    23    24    1
    18    24    25   ar
    19    25    26   ar
    20    26    27   ar
    21    27    28   ar
    22    28    29   ar
    23    29    30    1
    24    30    31    1
    25    31    32    1
    26     9    10   ar
    27    10    11   ar
    28    11    12   ar
    29    16    17   ar
    30    17    18   ar
    31    18    14   ar
    32    12     4   ar
    33    12     7   ar
    34    29    24   ar
    35    32    28    1
    36     1    13    1
    37    31    33    1
@<TRIPOS>MOLECULE
*****
 33 37 0 0 0
SMALL
GASTEIGER

@<TRIPOS>ATOM
      1 N         139.9564  145.2467  160.0573 N.am    1  UNL1       -0.2484
      2 C         140.4512  144.1314  160.9298 C.2     1  UNL1        0.3260
      3 O         141.6429  143.3230  160.5099 O.2     1  UNL1       -0.2488
      4 N         139.7543  143.8245  162.2222 N.ar    1  UNL1       -0.2453
      5 C         138.5569  144.5426  162.7703 C.ar    1  UNL1        0.0857
      6 C         138.1951  143.9075  164.0802 C.ar    1  UNL1        0.0223
      7 C         139.1688  142.7969  164.3415 C.ar    1  UNL1        0.0392
      8 C         139.3024  141.8257  165.4768 C.ar    1  UNL1        0.0422
      9 C         140.3998  140.8031  165.4637 C.ar    1  UNL1        0.1664
     10 C         141.3634  140.7518  164.3153 C.ar    1  UNL1        0.1379
     11 N         141.2298  141.7230  163.1801 N.ar    1  UNL1       -0.2231
     12 C         140.1325  142.7455  163.1932 C.ar    1  UNL1        0.1511
     13 H         139.1742  145.7773  160.3328 H       1  UNL1        0.1581
     14 C         141.0766  145.9498  156.4081 C.ar    1  UNL1        0.1549
     15 C         140.0127  145.6110  157.4098 C.ar    1  UNL1        0.0734
     16 C         140.6533  145.5536  158.7649 C.ar    1  UNL1        0.1773
     17 N         142.1131  145.8570  158.6008 N.ar    1  UNL1       -0.0620
     18 O         142.3747  146.1018  157.1443 O.2     1  UNL1       -0.3565
     19 C         139.7266  147.0365  155.1848 C.3     1  UNL1        0.0076
     20 C         140.8774  146.1087  154.9300 C.3     1  UNL1        0.0539
     21 C         142.0283  145.1809  154.6752 C.3     1  UNL1        0.0076
     22 C         140.6783  146.2676  153.4518 C.3     1  UNL1        0.0076
     23 O         140.5335  139.8318  166.5990 O.3     1  UNL1       -0.4347
     24 C         140.3785  140.3058  168.0136 C.ar    1  UNL1        0.2295
     25 N         139.1898  139.8776  168.8222 N.ar    1  UNL1       -0.1893
     26 C         139.0348  140.3515  170.2368 C.ar    1  UNL1        0.2012
     27 N         140.0686  141.2537  170.8430 N.ar    1  UNL1       -0.2270
     28 C         141.2573  141.6819  170.0345 C.ar    1  UNL1        0.0785
     29 C         141.4122  141.2079  168.6198 C.ar    1  UNL1        0.0621
     30 C         142.6804  141.7920  168.0716 C.3     1  UNL1        0.1019
     31 N         143.3093  142.6269  169.1474 N.3     1  UNL1       -0.2886
     32 C         142.4297  142.5589  170.3606 C.3     1  UNL1        0.1153
     33 H         143.3903  143.5937  168.8324 H       1  UNL1        0.1239
@<TRIPOS>BOND
     1    19    20    1
     2    20    21    1
     3    20    22    1
     4    20    14    1
     5    14    15   ar
     6    15    16   ar
     7    16     1    1
     8     1     2   am
     9     2     3    2
    10     2     4   am
    11     4     5   ar
    12     5     6   ar
    13     6     7   ar
    14     7     8   ar
    15     8     9   ar
    16     9    23    1
    17    23    24    1
    18    24    25   ar
    19    25    26   ar
    20    26    27   ar
    21    27    28   ar
    22    28    29   ar
    23    29    30    1
    24    30    31    1
    25    31    32    1
    26     9    10   ar
    27    10    11   ar
    28    11    12   ar
    29    16    17   ar
    30    17    18   ar
    31    18    14   ar
    32    12     4   ar
    33    12     7   ar
    34    29    24   ar
    35    32    28    1
    36     1    13    1
    37    31    33    1
@<TRIPOS>MOLECULE
*****
 33 37 0 0 0
SMALL
GASTEIGER

@<TRIPOS>ATOM
      1 N         144.2796  141.9721  158.9406 N.am    1  UNL1       -0.2484
      2 C         143.4684  140.7584  158.5957 C.2     1  UNL1        0.3260
      3 O         142.3386  140.3337  159.4862 O.2     1  UNL1       -0.2488
      4 N         143.7871  139.9695  157.3604 N.ar    1  UNL1       -0.2453
      5 C         144.8810  140.2711  156.3794 C.ar    1  UNL1        0.0857
      6 C         144.8377  139.2285  155.3019 C.ar    1  UNL1        0.0223
      7 C         143.7171  138.2826  155.6169 C.ar    1  UNL1        0.0392
      8 C         143.2040  137.0633  154.9096 C.ar    1  UNL1        0.0422
      9 C         142.0416  136.3021  155.4746 C.ar    1  UNL1        0.1664
     10 C         141.3922  136.7601  156.7469 C.ar    1  UNL1        0.1379
     11 N         141.9053  137.9793  157.4541 N.ar    1  UNL1       -0.2231
     12 C         143.0677  138.7405  156.8891 C.ar    1  UNL1        0.1511
     13 H         145.0212  142.2509  158.3562 H       1  UNL1        0.1581
     14 C         143.9559  143.5580  162.4685 C.ar    1  UNL1        0.1549
     15 C         144.5588  142.5500  161.5355 C.ar    1  UNL1        0.0734
     16 C         143.9610  142.7610  160.1760 C.ar    1  UNL1        0.1773
     17 N         142.9886  143.8994  160.2688 N.ar    1  UNL1       -0.0620
     18 O         142.9854  144.3919  161.6856 O.2     1  UNL1       -0.3565
     19 C         143.5905  145.0440  163.9375 C.3     1  UNL1        0.0076
     20 C         144.2684  143.7060  163.9281 C.3     1  UNL1        0.0539
     21 C         144.9464  142.3679  163.9185 C.3     1  UNL1        0.0076
     22 C         144.5811  143.8540  165.3876 C.3     1  UNL1        0.0076
     23 O         141.5285  135.0828  154.7673 O.3     1  UNL1       -0.4347
     24 C         142.3447  133.8244  154.7540 C.ar    1  UNL1        0.2295
     25 N         142.3616  132.9543  153.5322 N.ar    1  UNL1       -0.1893
     26 C         143.1778  131.6959  153.5188 C.ar    1  UNL1        0.2012
     27 N         143.9771  131.3075  154.7273 N.ar    1  UNL1       -0.2270
     28 C         143.9601  132.1776  155.9491 C.ar    1  UNL1        0.0785
     29 C         143.1439  133.4360  155.9624 C.ar    1  UNL1        0.0621
     30 C         143.3213  134.0893  157.3010 C.3     1  UNL1        0.1019
     31 N         144.2471  133.2347  158.1149 N.3     1  UNL1       -0.2886
     32 C         144.6419  132.0532  157.2794 C.3     1  UNL1        0.1153
     33 H         143.7722  132.9178  158.9602 H       1  UNL1        0.1239
@<TRIPOS>BOND
     1    19    20    1
     2    20    21    1
     3    20    22    1
     4    20    14    1
     5    14    15   ar
     6    15    16   ar
     7    16     1    1
     8     1     2   am
     9     2     3    2
    10     2     4   am
    11     4     5   ar
    12     5     6   ar
    13     6     7   ar
    14     7     8   ar
    15     8     9   ar
    16     9    23    1
    17    23    24    1
    18    24    25   ar
    19    25    26   ar
    20    26    27   ar
    21    27    28   ar
    22    28    29   ar
    23    29    30    1
    24    30    31    1
    25    31    32    1
    26     9    10   ar
    27    10    11   ar
    28    11    12   ar
    29    16    17   ar
    30    17    18   ar
    31    18    14   ar
    32    12     4   ar
    33    12     7   ar
    34    29    24   ar
    35    32    28    1
    36     1    13    1
    37    31    33    1
@<TRIPOS>MOLECULE
*****
 33 37 0 0 0
SMALL
GASTEIGER

@<TRIPOS>ATOM
      1 N         139.0918  138.8851  165.2312 N.am    1  UNL1       -0.2484
      2 C         138.9815  139.9776  164.2092 C.2     1  UNL1        0.3260
      3 O         138.8589  141.4063  164.6491 O.2     1  UNL1       -0.2488
      4 N         138.9938  139.6412  162.7475 N.ar    1  UNL1       -0.2453
      5 C         139.1099  138.2658  162.1602 C.ar    1  UNL1        0.0857
      6 C         139.0801  138.3958  160.6662 C.ar    1  UNL1        0.0223
      7 C         138.9456  139.8514  160.3300 C.ar    1  UNL1        0.0392
      8 C         138.8648  140.5754  159.0189 C.ar    1  UNL1        0.0422
      9 C         138.7307  142.0692  158.9940 C.ar    1  UNL1        0.1664
     10 C         138.6774  142.8389  160.2804 C.ar    1  UNL1        0.1379
     11 N         138.7582  142.1149  161.5916 N.ar    1  UNL1       -0.2231
     12 C         138.8923  140.6211  161.6164 C.ar    1  UNL1        0.1511
     13 H         139.1723  137.9473  164.9426 H       1  UNL1        0.1581
     14 C         139.7394  140.0511  168.8763 C.ar    1  UNL1        0.1549
     15 C         140.1706  139.9240  167.4452 C.ar    1  UNL1        0.0734
     16 C         139.0795  139.2215  166.6930 C.ar    1  UNL1        0.1773
     17 N         137.9739  138.9144  167.6591 N.ar    1  UNL1       -0.0620
     18 O         138.3817  139.4272  169.0084 O.2     1  UNL1       -0.3565
     19 C         141.5874  139.6391  169.8329 C.3     1  UNL1        0.0076
     20 C         140.5274  140.6900  169.9812 C.3     1  UNL1        0.0539
     21 C         139.4674  141.7410  170.1294 C.3     1  UNL1        0.0076
     22 C         141.3153  141.3290  171.0860 C.3     1  UNL1        0.0076
     23 O         138.6498  142.7933  157.6828 O.3     1  UNL1       -0.4347
     24 C         139.7206  143.7710  157.2988 C.ar    1  UNL1        0.2295
     25 N         141.0797  143.6799  157.9270 N.ar    1  UNL1       -0.1893
     26 C         142.1505  144.6577  157.5429 C.ar    1  UNL1        0.2012
     27 N         141.8621  145.7265  156.5307 N.ar    1  UNL1       -0.2270
     28 C         140.5031  145.8176  155.9026 C.ar    1  UNL1        0.0785
     29 C         139.4323  144.8398  156.2866 C.ar    1  UNL1        0.0621
     30 C         138.1968  145.1746  155.5046 C.3     1  UNL1        0.1019
     31 N         138.5040  146.3592  154.6372 N.3     1  UNL1       -0.2886
     32 C         139.9293  146.7566  154.8832 C.3     1  UNL1        0.1153
     33 H         137.8831  147.1327  154.8750 H       1  UNL1        0.1239
@<TRIPOS>BOND
     1    19    20    1
     2    20    21    1
     3    20    22    1
     4    20    14    1
     5    14    15   ar
     6    15    16   ar
     7    16     1    1
     8     1     2   am
     9     2     3    2
    10     2     4   am
    11     4     5   ar
    12     5     6   ar
    13     6     7   ar
    14     7     8   ar
    15     8     9   ar
    16     9    23    1
    17    23    24    1
    18    24    25   ar
    19    25    26   ar
    20    26    27   ar
    21    27    28   ar
    22    28    29   ar
    23    29    30    1
    24    30    31    1
    25    31    32    1
    26     9    10   ar
    27    10    11   ar
    28    11    12   ar
    29    16    17   ar
    30    17    18   ar
    31    18    14   ar
    32    12     4   ar
    33    12     7   ar
    34    29    24   ar
    35    32    28    1
    36     1    13    1
    37    31    33    1
@<TRIPOS>MOLECULE
*****
 33 37 0 0 0
SMALL
GASTEIGER

@<TRIPOS>ATOM
      1 N         143.2482  143.4917  159.6306 N.am    1  UNL1       -0.2484
      2 C         142.7437  142.6641  160.7755 C.2     1  UNL1        0.3260
      3 O         142.8429  141.1685  160.7206 O.2     1  UNL1       -0.2488
      4 N         142.1400  143.3323  161.9752 N.ar    1  UNL1       -0.2453
      5 C         141.9745  144.8102  162.1712 C.ar    1  UNL1        0.0857
      6 C         141.3281  145.0311  163.5066 C.ar    1  UNL1        0.0223
      7 C         141.0941  143.6897  164.1359 C.ar    1  UNL1        0.0392
      8 C         140.4889  143.2887  165.4485 C.ar    1  UNL1        0.0422
      9 C         140.3855  141.8378  165.8146 C.ar    1  UNL1        0.1664
     10 C         140.8873  140.7879  164.8681 C.ar    1  UNL1        0.1379
     11 N         141.4925  141.1889  163.5555 N.ar    1  UNL1       -0.2231
     12 C         141.5959  142.6398  163.1894 C.ar    1  UNL1        0.1511
     13 H         143.1831  144.4734  159.6666 H       1  UNL1        0.1581
     14 C         145.4603  142.0354  156.7932 C.ar    1  UNL1        0.1549
     15 C         145.3060  142.8192  158.0628 C.ar    1  UNL1        0.0734
     16 C         143.8519  142.8236  158.4310 C.ar    1  UNL1        0.1773
     17 N         143.1074  142.0426  157.3889 N.ar    1  UNL1       -0.0620
     18 O         144.1015  141.5555  156.3767 O.2     1  UNL1       -0.3565
     19 C         146.0544  140.7709  155.1969 C.3     1  UNL1        0.0076
     20 C         146.7473  141.7769  156.0674 C.3     1  UNL1        0.0539
     21 C         147.4402  142.7830  156.9380 C.3     1  UNL1        0.0076
     22 C         148.0343  141.5186  155.3417 C.3     1  UNL1        0.0076
     23 O         139.7803  141.4367  167.1272 O.3     1  UNL1       -0.4347
     24 C         140.4451  141.8335  168.4120 C.ar    1  UNL1        0.2295
     25 N         140.1363  143.1615  169.0373 N.ar    1  UNL1       -0.1893
     26 C         140.8011  143.5583  170.3221 C.ar    1  UNL1        0.2012
     27 N         141.7747  142.6269  170.9815 N.ar    1  UNL1       -0.2270
     28 C         142.0834  141.2990  170.3562 C.ar    1  UNL1        0.0785
     29 C         141.4187  140.9022  169.0714 C.ar    1  UNL1        0.0621
     30 C         141.9174  139.5391  168.6932 C.3     1  UNL1        0.1019
     31 N         142.8904  139.0933  169.7441 N.3     1  UNL1       -0.2886
     32 C         142.9930  140.1810  170.7719 C.3     1  UNL1        0.1153
     33 H         143.8043  138.9284  169.3222 H       1  UNL1        0.1239
@<TRIPOS>BOND
     1    19    20    1
     2    20    21    1
     3    20    22    1
     4    20    14    1
     5    14    15   ar
     6    15    16   ar
     7    16     1    1
     8     1     2   am
     9     2     3    2
    10     2     4   am
    11     4     5   ar
    12     5     6   ar
    13     6     7   ar
    14     7     8   ar
    15     8     9   ar
    16     9    23    1
    17    23    24    1
    18    24    25   ar
    19    25    26   ar
    20    26    27   ar
    21    27    28   ar
    22    28    29   ar
    23    29    30    1
    24    30    31    1
    25    31    32    1
    26     9    10   ar
    27    10    11   ar
    28    11    12   ar
    29    16    17   ar
    30    17    18   ar
    31    18    14   ar
    32    12     4   ar
    33    12     7   ar
    34    29    24   ar
    35    32    28    1
    36     1    13    1
    37    31    33    1
@<TRIPOS>MOLECULE
*****
 33 37 0 0 0
SMALL
GASTEIGER

@<TRIPOS>ATOM
      1 N         139.0368  138.8490  165.6463 N.am    1  UNL1       -0.2484
      2 C         138.8560  139.8606  164.5535 C.2     1  UNL1        0.3260
      3 O         138.7199  141.3152  164.8931 O.2     1  UNL1       -0.2488
      4 N         138.8112  139.4174  163.1211 N.ar    1  UNL1       -0.2453
      5 C         138.9329  138.0049  162.6311 C.ar    1  UNL1        0.0857
      6 C         138.8338  138.0234  161.1345 C.ar    1  UNL1        0.0223
      7 C         138.6509  139.4473  160.6996 C.ar    1  UNL1        0.0392
      8 C         138.4953  140.0707  159.3442 C.ar    1  UNL1        0.0422
      9 C         138.3257  141.5556  159.2166 C.ar    1  UNL1        0.1664
     10 C         138.3117  142.4171  160.4445 C.ar    1  UNL1        0.1379
     11 N         138.4673  141.7937  161.7999 N.ar    1  UNL1       -0.2231
     12 C         138.6369  140.3088  161.9274 C.ar    1  UNL1        0.1511
     13 H         139.1261  137.8943  165.4235 H       1  UNL1        0.1581
     14 C         139.8244  140.2822  169.1664 C.ar    1  UNL1        0.1549
     15 C         140.1983  140.0509  167.7323 C.ar    1  UNL1        0.0734
     16 C         139.0815  139.2923  167.0786 C.ar    1  UNL1        0.1773
     17 N         138.0173  139.0547  168.1087 N.ar    1  UNL1       -0.0620
     18 O         138.4765  139.6665  169.3990 O.2     1  UNL1       -0.3565
     19 C         141.6012  139.8415  170.2382 C.3     1  UNL1        0.0076
     20 C         140.6528  141.0026  170.1884 C.3     1  UNL1        0.0539
     21 C         139.7044  142.1638  170.1386 C.3     1  UNL1        0.0076
     22 C         141.4812  141.7231  171.2104 C.3     1  UNL1        0.0076
     23 O         138.1700  142.1790  157.8612 O.3     1  UNL1       -0.4347
     24 C         138.2927  141.3336  156.6282 C.ar    1  UNL1        0.2295
     25 N         139.6403  141.0931  156.0148 N.ar    1  UNL1       -0.1893
     26 C         139.7629  140.2476  154.7818 C.ar    1  UNL1        0.2012
     27 N         138.5380  139.6426  154.1624 N.ar    1  UNL1       -0.2270
     28 C         137.1905  139.8832  154.7758 C.ar    1  UNL1        0.0785
     29 C         137.0678  140.7286  156.0088 C.ar    1  UNL1        0.0621
     30 C         135.6175  140.7897  156.3864 C.3     1  UNL1        0.1019
     31 N         134.8437  139.9821  155.3870 N.3     1  UNL1       -0.2886
     32 C         135.8159  139.4218  154.3915 C.3     1  UNL1        0.1153
     33 H         134.1657  140.5774  154.9113 H       1  UNL1        0.1239
@<TRIPOS>BOND
     1    19    20    1
     2    20    21    1
     3    20    22    1
     4    20    14    1
     5    14    15   ar
     6    15    16   ar
     7    16     1    1
     8     1     2   am
     9     2     3    2
    10     2     4   am
    11     4     5   ar
    12     5     6   ar
    13     6     7   ar
    14     7     8   ar
    15     8     9   ar
    16     9    23    1
    17    23    24    1
    18    24    25   ar
    19    25    26   ar
    20    26    27   ar
    21    27    28   ar
    22    28    29   ar
    23    29    30    1
    24    30    31    1
    25    31    32    1
    26     9    10   ar
    27    10    11   ar
    28    11    12   ar
    29    16    17   ar
    30    17    18   ar
    31    18    14   ar
    32    12     4   ar
    33    12     7   ar
    34    29    24   ar
    35    32    28    1
    36     1    13    1
    37    31    33    1
@<TRIPOS>MOLECULE
*****
 33 37 0 0 0
SMALL
GASTEIGER

@<TRIPOS>ATOM
      1 N         139.1217  138.8128  164.3407 N.am    1  UNL1       -0.2484
      2 C         139.3738  139.9522  163.3982 C.2     1  UNL1        0.3260
      3 O         139.4211  141.3586  163.9175 O.2     1  UNL1       -0.2488
      4 N         139.5785  139.6851  161.9364 N.ar    1  UNL1       -0.2453
      5 C         139.5591  138.3390  161.2749 C.ar    1  UNL1        0.0857
      6 C         139.8072  138.5392  159.8092 C.ar    1  UNL1        0.0223
      7 C         139.9800  140.0091  159.5648 C.ar    1  UNL1        0.0392
      8 C         140.2478  140.7941  158.3150 C.ar    1  UNL1        0.0422
      9 C         140.3743  142.2873  158.3800 C.ar    1  UNL1        0.1664
     10 C         140.2330  142.9955  159.6947 C.ar    1  UNL1        0.1379
     11 N         139.9652  142.2105  160.9445 N.ar    1  UNL1       -0.2231
     12 C         139.8387  140.7173  160.8795 C.ar    1  UNL1        0.1511
     13 H         139.0907  137.8897  163.9999 H       1  UNL1        0.1581
     14 C         139.2623  139.8456  168.0795 C.ar    1  UNL1        0.1549
     15 C         139.8650  139.8107  166.7064 C.ar    1  UNL1        0.0734
     16 C         138.9170  139.0799  165.8025 C.ar    1  UNL1        0.1773
     17 N         137.7283  138.6631  166.6169 N.ar    1  UNL1       -0.0620
     18 O         137.9417  139.1363  168.0242 O.2     1  UNL1       -0.3565
     19 C         138.6034  140.2393  170.0571 C.3     1  UNL1        0.0076
     20 C         139.8728  140.4786  169.2947 C.3     1  UNL1        0.0539
     21 C         141.1423  140.7178  168.5321 C.3     1  UNL1        0.0076
     22 C         140.4834  141.1115  170.5097 C.3     1  UNL1        0.0076
     23 O         140.6421  143.0724  157.1301 O.3     1  UNL1       -0.4347
     24 C         139.5116  143.7479  156.4121 C.ar    1  UNL1        0.2295
     25 N         138.2790  142.9710  156.0551 N.ar    1  UNL1       -0.1893
     26 C         137.1485  143.6465  155.3370 C.ar    1  UNL1        0.2012
     27 N         137.2505  145.0988  154.9760 N.ar    1  UNL1       -0.2270
     28 C         138.4830  145.8757  155.3330 C.ar    1  UNL1        0.0785
     29 C         139.6135  145.2002  156.0511 C.ar    1  UNL1        0.0621
     30 C         140.6956  146.2155  156.2707 C.3     1  UNL1        0.1019
     31 N         140.2339  147.5184  155.6885 N.3     1  UNL1       -0.2886
     32 C         138.8664  147.3084  155.1089 C.3     1  UNL1        0.1153
     33 H         140.8778  147.8180  154.9564 H       1  UNL1        0.1239
@<TRIPOS>BOND
     1    19    20    1
     2    20    21    1
     3    20    22    1
     4    20    14    1
     5    14    15   ar
     6    15    16   ar
     7    16     1    1
     8     1     2   am
     9     2     3    2
    10     2     4   am
    11     4     5   ar
    12     5     6   ar
    13     6     7   ar
    14     7     8   ar
    15     8     9   ar
    16     9    23    1
    17    23    24    1
    18    24    25   ar
    19    25    26   ar
    20    26    27   ar
    21    27    28   ar
    22    28    29   ar
    23    29    30    1
    24    30    31    1
    25    31    32    1
    26     9    10   ar
    27    10    11   ar
    28    11    12   ar
    29    16    17   ar
    30    17    18   ar
    31    18    14   ar
    32    12     4   ar
    33    12     7   ar
    34    29    24   ar
    35    32    28    1
    36     1    13    1
    37    31    33    1
@<TRIPOS>MOLECULE
*****
 33 37 0 0 0
SMALL
GASTEIGER

@<TRIPOS>ATOM
      1 N         138.0442  141.3840  158.6037 N.am    1  UNL1       -0.2484
      2 C         138.1352  140.6467  159.9069 C.2     1  UNL1        0.3260
      3 O         138.0376  139.1501  159.9301 O.2     1  UNL1       -0.2488
      4 N         138.3239  141.4060  161.1867 N.ar    1  UNL1       -0.2453
      5 C         138.4378  142.8958  161.3193 C.ar    1  UNL1        0.0857
      6 C         138.6161  143.2193  162.7731 C.ar    1  UNL1        0.0223
      7 C         138.6123  141.9295  163.5390 C.ar    1  UNL1        0.0392
      8 C         138.7499  141.6308  165.0024 C.ar    1  UNL1        0.0422
      9 C         138.7070  140.2114  165.4854 C.ar    1  UNL1        0.1664
     10 C         138.5264  139.0907  164.5049 C.ar    1  UNL1        0.1379
     11 N         138.3887  139.3894  163.0414 N.ar    1  UNL1       -0.2231
     12 C         138.4317  140.8088  162.5585 C.ar    1  UNL1        0.1511
     13 H         138.1082  142.3663  158.5884 H       1  UNL1        0.1581
     14 C         138.2863  139.2504  155.3704 C.ar    1  UNL1        0.1549
     15 C         138.9113  139.8453  156.5974 C.ar    1  UNL1        0.0734
     16 C         137.8555  140.6247  157.3239 C.ar    1  UNL1        0.1773
     17 N         136.5780  140.5115  156.5461 N.ar    1  UNL1       -0.0620
     18 O         136.8442  139.6621  155.3388 O.2     1  UNL1       -0.3565
     19 C         139.2045  137.3383  155.3955 C.3     1  UNL1        0.0076
     20 C         138.9812  138.3941  154.3537 C.3     1  UNL1        0.0539
     21 C         138.7579  139.4500  153.3119 C.3     1  UNL1        0.0076
     22 C         139.6762  137.5379  153.3370 C.3     1  UNL1        0.0076
     23 O         138.8447  139.9126  166.9489 O.3     1  UNL1       -0.4347
     24 C         140.2015  139.9047  167.5884 C.ar    1  UNL1        0.2295
     25 N         141.3942  139.4322  166.8110 N.ar    1  UNL1       -0.1893
     26 C         142.7511  139.4244  167.4505 C.ar    1  UNL1        0.2012
     27 N         142.9152  139.8891  168.8673 N.ar    1  UNL1       -0.2270
     28 C         141.7225  140.3616  169.6445 C.ar    1  UNL1        0.0785
     29 C         140.3656  140.3694  169.0051 C.ar    1  UNL1        0.0621
     30 C         139.3815  140.8864  170.0122 C.3     1  UNL1        0.1019
     31 N         140.1301  141.1981  171.2741 N.3     1  UNL1       -0.2886
     32 C         141.5769  140.8737  171.0469 C.3     1  UNL1        0.1153
     33 H         139.7653  140.6338  172.0414 H       1  UNL1        0.1239
@<TRIPOS>BOND
     1    19    20    1
     2    20    21    1
     3    20    22    1
     4    20    14    1
     5    14    15   ar
     6    15    16   ar
     7    16     1    1
     8     1     2   am
     9     2     3    2
    10     2     4   am
    11     4     5   ar
    12     5     6   ar
    13     6     7   ar
    14     7     8   ar
    15     8     9   ar
    16     9    23    1
    17    23    24    1
    18    24    25   ar
    19    25    26   ar
    20    26    27   ar
    21    27    28   ar
    22    28    29   ar
    23    29    30    1
    24    30    31    1
    25    31    32    1
    26     9    10   ar
    27    10    11   ar
    28    11    12   ar
    29    16    17   ar
    30    17    18   ar
    31    18    14   ar
    32    12     4   ar
    33    12     7   ar
    34    29    24   ar
    35    32    28    1
    36     1    13    1
    37    31    33    1
