@<TRIPOS>MOLECULE
*****
 35 38 0 0 0
SMALL
GASTEIGER

@<TRIPOS>ATOM
      1 N         142.5557  140.2732  167.7689 N.3     1  UNL1       -0.2684
      2 C         142.9484  139.2591  166.7358 C.3     1  UNL1        0.1035
      3 C         143.6192  139.7004  165.4688 C.3     1  UNL1        0.1470
      4 C         144.2900  140.1416  164.2018 C.3     1  UNL1        0.1035
      5 N         144.5682  141.5970  163.9679 N.3     1  UNL1       -0.2673
      6 C         144.1755  142.6110  165.0012 C.3     1  UNL1        0.1035
      7 C         143.5047  142.1698  166.2682 C.3     1  UNL1        0.1470
      8 C         142.8339  141.7285  167.5351 C.3     1  UNL1        0.1035
      9 O         143.8973  141.1557  165.2350 O.3     1  UNL1       -0.3530
     10 C         141.8849  139.8320  169.0360 C.3     1  UNL1        0.0761
     11 C         140.4151  140.0635  169.2264 C.3     1  UNL1        0.0646
     12 C         139.4944  140.0516  168.0422 C.3     1  UNL1        0.2068
     13 O         139.5979  141.1263  167.0009 O.3     1  UNL1       -0.4754
     14 C         139.1798  140.0845  162.6432 C.ar    1  UNL1        0.0686
     15 C         140.3939  140.8220  163.1249 C.ar    1  UNL1        0.0134
     16 C         140.5333  141.1692  164.5774 C.ar    1  UNL1        0.0376
     17 C         139.4585  140.7790  165.5484 C.ar    1  UNL1        0.1386
     18 C         138.2444  140.0416  165.0667 C.ar    1  UNL1        0.0376
     19 C         138.1050  139.6943  163.6140 C.ar    1  UNL1        0.0134
     20 N         138.9009  139.3900  159.7380 N.1     1  UNL1       -0.1908
     21 C         139.0404  139.7373  161.1906 C.1     1  UNL1        0.1004
     22 C         145.2390  142.0382  162.7010 C.3     1  UNL1        0.0913
     23 C         144.6264  143.1241  161.8668 C.3     1  UNL1        0.1084
     24 N         143.3562  142.8642  161.1126 N.3     1  UNL1       -0.1816
     25 H         143.0305  141.9395  161.3942 H       1  UNL1        0.1485
     26 S         142.1913  143.7974  161.2614 S.O2    1  UNL1        0.0451
     27 O         141.3421  142.8672  160.4467 O.2     1  UNL1       -0.1572
     28 O         143.0405  144.7275  162.0760 O.2     1  UNL1       -0.1572
     29 C         141.0264  144.7307  161.4101 C.3     1  UNL1        0.1952
     30 C         139.9780  144.4620  162.4487 C.ar    1  UNL1        0.0029
     31 C         140.1916  144.9116  163.8638 C.ar    1  UNL1       -0.0025
     32 C         139.1432  144.6429  164.9024 C.ar    1  UNL1       -0.0003
     33 C         137.8813  143.9246  164.5259 C.ar    1  UNL1       -0.0000
     34 C         137.6678  143.4750  163.1109 C.ar    1  UNL1       -0.0003
     35 C         138.7162  143.7437  162.0723 C.ar    1  UNL1       -0.0025
@<TRIPOS>BOND
     1    20    21    3
     2    21    14    1
     3    14    15   ar
     4    15    16   ar
     5    16    17   ar
     6    17    13    1
     7    13    12    1
     8    12    11    1
     9    11    10    1
    10    10     1    1
    11     1     2    1
    12     2     3    1
    13     3     4    1
    14     4     5    1
    15     5    22    1
    16    22    23    1
    17    23    24    1
    18    24    26    1
    19    26    27    2
    20    26    28    2
    21    26    29    1
    22    29    30    1
    23    30    31   ar
    24    31    32   ar
    25    32    33   ar
    26    33    34   ar
    27    34    35   ar
    28     5     6    1
    29     6     7    1
    30     7     8    1
    31     7     9    1
    32    17    18   ar
    33    18    19   ar
    34    19    14   ar
    35     8     1    1
    36     9     3    1
    37    35    30   ar
    38    24    25    1
@<TRIPOS>MOLECULE
*****
 35 38 0 0 0
SMALL
GASTEIGER

@<TRIPOS>ATOM
      1 N         142.9811  141.0038  159.5685 N.3     1  UNL1       -0.2684
      2 C         141.6611  141.3157  158.9279 C.3     1  UNL1        0.1035
      3 C         140.8896  142.5298  159.3528 C.3     1  UNL1        0.1470
      4 C         140.1180  143.7441  159.7776 C.3     1  UNL1        0.1035
      5 N         140.6665  144.6463  160.8430 N.3     1  UNL1       -0.2673
      6 C         141.9865  144.3344  161.4836 C.3     1  UNL1        0.1035
      7 C         142.7580  143.1202  161.0588 C.3     1  UNL1        0.1470
      8 C         143.5295  141.9061  160.6339 C.3     1  UNL1        0.1035
      9 O         141.4381  143.4321  160.4182 O.3     1  UNL1       -0.3530
     10 C         143.7527  139.7896  159.1437 C.3     1  UNL1        0.0761
     11 C         143.3657  138.4360  159.6614 C.3     1  UNL1        0.0646
     12 C         142.7583  138.3005  161.0263 C.3     1  UNL1        0.2068
     13 O         141.5612  137.4201  161.2304 O.3     1  UNL1       -0.4754
     14 C         138.9973  137.9225  164.8942 C.ar    1  UNL1        0.0686
     15 C         138.4462  138.2614  163.5409 C.ar    1  UNL1        0.0134
     16 C         139.3008  138.0939  162.3197 C.ar    1  UNL1        0.0376
     17 C         140.7066  137.5875  162.4517 C.ar    1  UNL1        0.1386
     18 C         141.2577  137.2486  163.8050 C.ar    1  UNL1        0.0376
     19 C         140.4030  137.4161  165.0263 C.ar    1  UNL1        0.0134
     20 N         137.2880  138.2574  167.3368 N.1     1  UNL1       -0.1908
     21 C         138.1427  138.0899  166.1155 C.1     1  UNL1        0.1004
     22 C         139.8950  145.8605  161.2678 C.3     1  UNL1        0.0913
     23 C         138.9812  145.7909  162.4554 C.3     1  UNL1        0.1084
     24 N         137.8044  144.8609  162.4427 N.3     1  UNL1       -0.1816
     25 H         137.6162  144.6375  161.4654 H       1  UNL1        0.1485
     26 S         137.8715  143.5563  163.1800 S.O2    1  UNL1        0.0451
     27 O         137.6127  142.8194  161.8994 O.2     1  UNL1       -0.1572
     28 O         138.1304  144.2933  164.4605 O.2     1  UNL1       -0.1572
     29 C         137.9387  142.2517  163.9173 C.3     1  UNL1        0.1952
     30 C         139.2563  141.7423  164.4218 C.ar    1  UNL1        0.0029
     31 C         140.3713  141.4633  163.4579 C.ar    1  UNL1       -0.0025
     32 C         141.6889  140.9539  163.9624 C.ar    1  UNL1       -0.0003
     33 C         141.8915  140.7236  165.4307 C.ar    1  UNL1       -0.0000
     34 C         140.7765  141.0026  166.3945 C.ar    1  UNL1       -0.0003
     35 C         139.4589  141.5120  165.8900 C.ar    1  UNL1       -0.0025
@<TRIPOS>BOND
     1    20    21    3
     2    21    14    1
     3    14    15   ar
     4    15    16   ar
     5    16    17   ar
     6    17    13    1
     7    13    12    1
     8    12    11    1
     9    11    10    1
    10    10     1    1
    11     1     2    1
    12     2     3    1
    13     3     4    1
    14     4     5    1
    15     5    22    1
    16    22    23    1
    17    23    24    1
    18    24    26    1
    19    26    27    2
    20    26    28    2
    21    26    29    1
    22    29    30    1
    23    30    31   ar
    24    31    32   ar
    25    32    33   ar
    26    33    34   ar
    27    34    35   ar
    28     5     6    1
    29     6     7    1
    30     7     8    1
    31     7     9    1
    32    17    18   ar
    33    18    19   ar
    34    19    14   ar
    35     8     1    1
    36     9     3    1
    37    35    30   ar
    38    24    25    1
@<TRIPOS>MOLECULE
*****
 35 38 0 0 0
SMALL
GASTEIGER

@<TRIPOS>ATOM
      1 N         139.6434  137.6599  163.9919 N.3     1  UNL1       -0.2684
      2 C         139.0389  137.9554  162.6513 C.3     1  UNL1        0.1035
      3 C         139.9237  138.2857  161.4860 C.3     1  UNL1        0.1470
      4 C         140.8085  138.6161  160.3206 C.3     1  UNL1        0.1035
      5 N         142.2978  138.6510  160.4959 N.3     1  UNL1       -0.2673
      6 C         142.9023  138.3555  161.8366 C.3     1  UNL1        0.1035
      7 C         142.0175  138.0251  163.0019 C.3     1  UNL1        0.1470
      8 C         141.1327  137.6948  164.1672 C.3     1  UNL1        0.1035
      9 O         141.4130  138.3206  161.6613 O.3     1  UNL1       -0.3530
     10 C         138.7586  137.3295  165.1572 C.3     1  UNL1        0.0761
     11 C         138.4603  138.3735  166.1921 C.3     1  UNL1        0.0646
     12 C         138.1780  139.7859  165.7730 C.3     1  UNL1        0.2068
     13 O         139.2179  140.8487  165.9699 O.3     1  UNL1       -0.4754
     14 C         139.4134  144.3543  163.1552 C.ar    1  UNL1        0.0686
     15 C         139.8876  144.5016  164.5706 C.ar    1  UNL1        0.0134
     16 C         139.8224  143.3331  165.5089 C.ar    1  UNL1        0.0376
     17 C         139.2831  142.0172  165.0317 C.ar    1  UNL1        0.1386
     18 C         138.8089  141.8699  163.6163 C.ar    1  UNL1        0.0376
     19 C         138.8740  143.0385  162.6780 C.ar    1  UNL1        0.0134
     20 N         139.5437  146.6914  161.2787 N.1     1  UNL1       -0.1908
     21 C         139.4785  145.5228  162.2170 C.1     1  UNL1        0.1004
     22 C         143.1826  138.9814  159.3307 C.3     1  UNL1        0.0913
     23 C         143.7658  140.3571  159.1980 C.3     1  UNL1        0.1084
     24 N         142.8613  141.5429  159.0385 N.3     1  UNL1       -0.1816
     25 H         141.9248  141.1777  158.8649 H       1  UNL1        0.1485
     26 S         142.7365  142.5455  160.1472 S.O2    1  UNL1        0.0451
     27 O         144.2276  142.5513  160.3098 O.2     1  UNL1       -0.1572
     28 O         141.2453  142.5396  159.9846 O.2     1  UNL1       -0.1572
     29 C         142.6116  143.5481  161.2559 C.3     1  UNL1        0.1952
     30 C         142.9515  143.1560  162.6634 C.ar    1  UNL1        0.0029
     31 C         143.6933  144.1121  163.5499 C.ar    1  UNL1       -0.0025
     32 C         144.0331  143.7201  164.9573 C.ar    1  UNL1       -0.0003
     33 C         143.6312  142.3720  165.4782 C.ar    1  UNL1       -0.0000
     34 C         142.8895  141.4161  164.5917 C.ar    1  UNL1       -0.0003
     35 C         142.5496  141.8081  163.1843 C.ar    1  UNL1       -0.0025
@<TRIPOS>BOND
     1    20    21    3
     2    21    14    1
     3    14    15   ar
     4    15    16   ar
     5    16    17   ar
     6    17    13    1
     7    13    12    1
     8    12    11    1
     9    11    10    1
    10    10     1    1
    11     1     2    1
    12     2     3    1
    13     3     4    1
    14     4     5    1
    15     5    22    1
    16    22    23    1
    17    23    24    1
    18    24    26    1
    19    26    27    2
    20    26    28    2
    21    26    29    1
    22    29    30    1
    23    30    31   ar
    24    31    32   ar
    25    32    33   ar
    26    33    34   ar
    27    34    35   ar
    28     5     6    1
    29     6     7    1
    30     7     8    1
    31     7     9    1
    32    17    18   ar
    33    18    19   ar
    34    19    14   ar
    35     8     1    1
    36     9     3    1
    37    35    30   ar
    38    24    25    1
@<TRIPOS>MOLECULE
*****
 35 38 0 0 0
SMALL
GASTEIGER

@<TRIPOS>ATOM
      1 N         138.0276  142.8759  162.7815 N.3     1  UNL1       -0.2684
      2 C         137.7215  141.4464  163.1170 C.3     1  UNL1        0.1035
      3 C         138.3534  140.3387  162.3273 C.3     1  UNL1        0.1470
      4 C         138.9853  139.2310  161.5374 C.3     1  UNL1        0.1035
      5 N         139.9233  139.5529  160.4121 N.3     1  UNL1       -0.2673
      6 C         140.2295  140.9826  160.0765 C.3     1  UNL1        0.1035
      7 C         139.5976  142.0902  160.8663 C.3     1  UNL1        0.1470
      8 C         138.9657  143.1978  161.6561 C.3     1  UNL1        0.1035
      9 O         139.2914  140.6607  161.2019 O.3     1  UNL1       -0.3530
     10 C         137.3957  143.9836  163.5713 C.3     1  UNL1        0.0761
     11 C         137.9521  144.3605  164.9123 C.3     1  UNL1        0.0646
     12 C         139.4017  144.1234  165.2164 C.3     1  UNL1        0.2068
     13 O         139.8065  143.5574  166.5452 O.3     1  UNL1       -0.4754
     14 C         142.4387  139.9123  166.7306 C.ar    1  UNL1        0.0686
     15 C         142.7096  141.0796  167.6328 C.ar    1  UNL1        0.0134
     16 C         141.8322  142.2947  167.5710 C.ar    1  UNL1        0.0376
     17 C         140.6839  142.3424  166.6070 C.ar    1  UNL1        0.1386
     18 C         140.4130  141.1750  165.7049 C.ar    1  UNL1        0.0376
     19 C         141.2904  139.9599  165.7667 C.ar    1  UNL1        0.0134
     20 N         144.1935  137.4821  166.8542 N.1     1  UNL1       -0.1908
     21 C         143.3161  138.6972  166.7924 C.1     1  UNL1        0.1004
     22 C         140.5552  138.4453  159.6223 C.3     1  UNL1        0.0913
     23 C         142.0200  138.1587  159.7718 C.3     1  UNL1        0.1084
     24 N         142.5375  137.5373  161.0351 N.3     1  UNL1       -0.1816
     25 H         143.0182  136.6790  160.7657 H       1  UNL1        0.1485
     26 S         143.4797  138.3029  161.9161 S.O2    1  UNL1        0.0451
     27 O         144.3148  138.6517  160.7200 O.2     1  UNL1       -0.1572
     28 O         142.6446  137.9541  163.1123 O.2     1  UNL1       -0.1572
     29 C         144.4218  139.0685  162.7972 C.3     1  UNL1        0.1952
     30 C         144.0699  140.4563  163.2444 C.ar    1  UNL1        0.0029
     31 C         144.8780  141.1266  164.3158 C.ar    1  UNL1       -0.0025
     32 C         144.5261  142.5145  164.7630 C.ar    1  UNL1       -0.0003
     33 C         143.3660  143.2320  164.1389 C.ar    1  UNL1       -0.0000
     34 C         142.5580  142.5617  163.0676 C.ar    1  UNL1       -0.0003
     35 C         142.9099  141.1739  162.6203 C.ar    1  UNL1       -0.0025
@<TRIPOS>BOND
     1    20    21    3
     2    21    14    1
     3    14    15   ar
     4    15    16   ar
     5    16    17   ar
     6    17    13    1
     7    13    12    1
     8    12    11    1
     9    11    10    1
    10    10     1    1
    11     1     2    1
    12     2     3    1
    13     3     4    1
    14     4     5    1
    15     5    22    1
    16    22    23    1
    17    23    24    1
    18    24    26    1
    19    26    27    2
    20    26    28    2
    21    26    29    1
    22    29    30    1
    23    30    31   ar
    24    31    32   ar
    25    32    33   ar
    26    33    34   ar
    27    34    35   ar
    28     5     6    1
    29     6     7    1
    30     7     8    1
    31     7     9    1
    32    17    18   ar
    33    18    19   ar
    34    19    14   ar
    35     8     1    1
    36     9     3    1
    37    35    30   ar
    38    24    25    1
@<TRIPOS>MOLECULE
*****
 35 38 0 0 0
SMALL
GASTEIGER

@<TRIPOS>ATOM
      1 N         143.4019  140.3820  160.6451 N.3     1  UNL1       -0.2684
      2 C         142.1958  140.5051  159.7619 C.3     1  UNL1        0.1035
      3 C         141.4658  141.8119  159.6672 C.3     1  UNL1        0.1470
      4 C         140.7356  143.1189  159.5726 C.3     1  UNL1        0.1035
      5 N         141.2116  144.3027  160.3612 N.3     1  UNL1       -0.2673
      6 C         142.4178  144.1796  161.2444 C.3     1  UNL1        0.1035
      7 C         143.1479  142.8728  161.3391 C.3     1  UNL1        0.1470
      8 C         143.8780  141.5659  161.4337 C.3     1  UNL1        0.1035
      9 O         141.9418  142.9958  160.4558 O.3     1  UNL1       -0.3530
     10 C         144.1321  139.0751  160.7398 C.3     1  UNL1        0.0761
     11 C         143.6508  138.0138  161.6842 C.3     1  UNL1        0.0646
     12 C         142.8713  138.3959  162.9075 C.3     1  UNL1        0.2068
     13 O         143.5878  138.8876  164.1301 O.3     1  UNL1       -0.4754
     14 C         141.5090  141.6734  166.9882 C.ar    1  UNL1        0.0686
     15 C         141.2690  140.1952  167.0735 C.ar    1  UNL1        0.0134
     16 C         141.9619  139.2666  166.1209 C.ar    1  UNL1        0.0376
     17 C         142.8949  139.8162  165.0828 C.ar    1  UNL1        0.1386
     18 C         143.1349  141.2944  164.9974 C.ar    1  UNL1        0.0376
     19 C         142.4419  142.2230  165.9501 C.ar    1  UNL1        0.0134
     20 N         140.1232  143.5306  168.8935 N.1     1  UNL1       -0.1908
     21 C         140.8161  142.6019  167.9408 C.1     1  UNL1        0.1004
     22 C         140.4815  145.6096  160.2666 C.3     1  UNL1        0.0913
     23 C         139.6307  146.0779  161.4098 C.3     1  UNL1        0.1084
     24 N         140.0857  145.8590  162.8222 N.3     1  UNL1       -0.1816
     25 H         139.9774  146.7494  163.3078 H       1  UNL1        0.1485
     26 S         139.4190  144.8184  163.6721 S.O2    1  UNL1        0.0451
     27 O         138.2252  144.8418  162.7643 O.2     1  UNL1       -0.1572
     28 O         140.6129  144.7949  164.5799 O.2     1  UNL1       -0.1572
     29 C         138.7523  143.7777  164.5222 C.3     1  UNL1        0.1952
     30 C         138.9479  142.3221  164.2171 C.ar    1  UNL1        0.0029
     31 C         138.2303  141.2830  165.0267 C.ar    1  UNL1       -0.0025
     32 C         138.4260  139.8275  164.7216 C.ar    1  UNL1       -0.0003
     33 C         139.3392  139.4110  163.6068 C.ar    1  UNL1       -0.0000
     34 C         140.0567  140.4501  162.7972 C.ar    1  UNL1       -0.0003
     35 C         139.8611  141.9056  163.1024 C.ar    1  UNL1       -0.0025
@<TRIPOS>BOND
     1    20    21    3
     2    21    14    1
     3    14    15   ar
     4    15    16   ar
     5    16    17   ar
     6    17    13    1
     7    13    12    1
     8    12    11    1
     9    11    10    1
    10    10     1    1
    11     1     2    1
    12     2     3    1
    13     3     4    1
    14     4     5    1
    15     5    22    1
    16    22    23    1
    17    23    24    1
    18    24    26    1
    19    26    27    2
    20    26    28    2
    21    26    29    1
    22    29    30    1
    23    30    31   ar
    24    31    32   ar
    25    32    33   ar
    26    33    34   ar
    27    34    35   ar
    28     5     6    1
    29     6     7    1
    30     7     8    1
    31     7     9    1
    32    17    18   ar
    33    18    19   ar
    34    19    14   ar
    35     8     1    1
    36     9     3    1
    37    35    30   ar
    38    24    25    1
@<TRIPOS>MOLECULE
*****
 35 38 0 0 0
SMALL
GASTEIGER

@<TRIPOS>ATOM
      1 N         142.7902  139.4078  160.4839 N.3     1  UNL1       -0.2684
      2 C         143.2236  138.3811  161.4879 C.3     1  UNL1        0.1035
      3 C         142.2397  137.8458  162.4856 C.3     1  UNL1        0.1470
      4 C         141.2559  137.3103  163.4833 C.3     1  UNL1        0.1035
      5 N         139.8386  137.8016  163.4770 N.3     1  UNL1       -0.2673
      6 C         139.4052  138.8283  162.4729 C.3     1  UNL1        0.1035
      7 C         140.3891  139.3637  161.4752 C.3     1  UNL1        0.1470
      8 C         141.3729  139.8990  160.4775 C.3     1  UNL1        0.1035
      9 O         140.8225  138.3370  162.4792 O.3     1  UNL1       -0.3530
     10 C         143.7740  139.9432  159.4861 C.3     1  UNL1        0.0761
     11 C         143.8481  141.4180  159.2230 C.3     1  UNL1        0.0646
     12 C         144.0883  142.3710  160.3563 C.3     1  UNL1        0.2068
     13 O         143.3890  143.6977  160.3816 O.3     1  UNL1       -0.4754
     14 C         140.3927  144.6004  163.6154 C.ar    1  UNL1        0.0686
     15 C         141.8207  145.0308  163.7748 C.ar    1  UNL1        0.0134
     16 C         142.8195  144.7299  162.6969 C.ar    1  UNL1        0.0376
     17 C         142.3902  143.9986  161.4595 C.ar    1  UNL1        0.1386
     18 C         140.9622  143.5682  161.3001 C.ar    1  UNL1        0.0376
     19 C         139.9634  143.8691  162.3781 C.ar    1  UNL1        0.0134
     20 N         138.3950  145.2022  165.7712 N.1     1  UNL1       -0.1908
     21 C         139.3939  144.9013  164.6932 C.1     1  UNL1        0.1004
     22 C         138.8548  137.2663  164.4746 C.3     1  UNL1        0.0913
     23 C         138.5195  138.0642  165.6998 C.3     1  UNL1        0.1084
     24 N         138.0821  139.4929  165.5679 N.3     1  UNL1       -0.1816
     25 H         137.2393  139.5962  166.1332 H       1  UNL1        0.1485
     26 S         139.0102  140.6013  165.9676 S.O2    1  UNL1        0.0451
     27 O         139.7057  139.6752  166.9208 O.2     1  UNL1       -0.1572
     28 O         138.3147  141.5274  165.0144 O.2     1  UNL1       -0.1572
     29 C         139.9384  141.7099  166.3673 C.3     1  UNL1        0.1952
     30 C         141.3163  141.7830  165.7792 C.ar    1  UNL1        0.0029
     31 C         142.4050  142.5136  166.5079 C.ar    1  UNL1       -0.0025
     32 C         143.7830  142.5868  165.9198 C.ar    1  UNL1       -0.0003
     33 C         144.0722  141.9294  164.6028 C.ar    1  UNL1       -0.0000
     34 C         142.9835  141.1988  163.8742 C.ar    1  UNL1       -0.0003
     35 C         141.6056  141.1257  164.4623 C.ar    1  UNL1       -0.0025
@<TRIPOS>BOND
     1    20    21    3
     2    21    14    1
     3    14    15   ar
     4    15    16   ar
     5    16    17   ar
     6    17    13    1
     7    13    12    1
     8    12    11    1
     9    11    10    1
    10    10     1    1
    11     1     2    1
    12     2     3    1
    13     3     4    1
    14     4     5    1
    15     5    22    1
    16    22    23    1
    17    23    24    1
    18    24    26    1
    19    26    27    2
    20    26    28    2
    21    26    29    1
    22    29    30    1
    23    30    31   ar
    24    31    32   ar
    25    32    33   ar
    26    33    34   ar
    27    34    35   ar
    28     5     6    1
    29     6     7    1
    30     7     8    1
    31     7     9    1
    32    17    18   ar
    33    18    19   ar
    34    19    14   ar
    35     8     1    1
    36     9     3    1
    37    35    30   ar
    38    24    25    1
@<TRIPOS>MOLECULE
*****
 35 38 0 0 0
SMALL
GASTEIGER

@<TRIPOS>ATOM
      1 N         142.0219  139.1575  162.6524 N.3     1  UNL1       -0.2684
      2 C         140.5676  139.5245  162.6325 C.3     1  UNL1        0.1035
      3 C         140.0842  140.6253  161.7355 C.3     1  UNL1        0.1470
      4 C         139.6008  141.7262  160.8386 C.3     1  UNL1        0.1035
      5 N         140.5716  142.4599  159.9616 N.3     1  UNL1       -0.2673
      6 C         142.0259  142.0928  159.9815 C.3     1  UNL1        0.1035
      7 C         142.5093  140.9920  160.8785 C.3     1  UNL1        0.1470
      8 C         142.9927  139.8912  161.7754 C.3     1  UNL1        0.1035
      9 O         141.0551  141.3591  160.8585 O.3     1  UNL1       -0.3530
     10 C         142.5054  138.0566  163.5494 C.3     1  UNL1        0.0761
     11 C         142.3288  138.1675  165.0348 C.3     1  UNL1        0.0646
     12 C         143.5028  138.5014  165.9068 C.3     1  UNL1        0.2068
     13 O         143.3231  138.6274  167.3906 O.3     1  UNL1       -0.4754
     14 C         141.3122  142.2663  169.1125 C.ar    1  UNL1        0.0686
     15 C         142.0593  142.3653  167.8156 C.ar    1  UNL1        0.0134
     16 C         142.7295  141.1524  167.2416 C.ar    1  UNL1        0.0376
     17 C         142.6528  139.8403  167.9646 C.ar    1  UNL1        0.1386
     18 C         141.9058  139.7413  169.2616 C.ar    1  UNL1        0.0376
     19 C         141.2355  140.9543  169.8355 C.ar    1  UNL1        0.0134
     20 N         139.9716  144.6922  170.2606 N.1     1  UNL1       -0.1908
     21 C         140.6420  143.4792  169.6865 C.1     1  UNL1        0.1004
     22 C         140.0882  143.5607  159.0646 C.3     1  UNL1        0.0913
     23 C         140.7178  144.9202  159.1395 C.3     1  UNL1        0.1084
     24 N         141.4002  145.3623  160.3999 N.3     1  UNL1       -0.1816
     25 H         141.7550  146.3031  160.2282 H       1  UNL1        0.1485
     26 S         140.6338  145.4170  161.6881 S.O2    1  UNL1        0.0451
     27 O         139.5396  146.1822  161.0047 O.2     1  UNL1       -0.1572
     28 O         141.7280  144.6517  162.3716 O.2     1  UNL1       -0.1572
     29 C         139.8674  145.4716  162.9765 C.3     1  UNL1        0.1952
     30 C         139.2904  144.2159  163.5597 C.ar    1  UNL1        0.0029
     31 C         140.0659  143.4383  164.5816 C.ar    1  UNL1       -0.0025
     32 C         139.4889  142.1825  165.1648 C.ar    1  UNL1       -0.0003
     33 C         138.1364  141.7044  164.7262 C.ar    1  UNL1       -0.0000
     34 C         137.3610  142.4819  163.7045 C.ar    1  UNL1       -0.0003
     35 C         137.9380  143.7377  163.1212 C.ar    1  UNL1       -0.0025
@<TRIPOS>BOND
     1    20    21    3
     2    21    14    1
     3    14    15   ar
     4    15    16   ar
     5    16    17   ar
     6    17    13    1
     7    13    12    1
     8    12    11    1
     9    11    10    1
    10    10     1    1
    11     1     2    1
    12     2     3    1
    13     3     4    1
    14     4     5    1
    15     5    22    1
    16    22    23    1
    17    23    24    1
    18    24    26    1
    19    26    27    2
    20    26    28    2
    21    26    29    1
    22    29    30    1
    23    30    31   ar
    24    31    32   ar
    25    32    33   ar
    26    33    34   ar
    27    34    35   ar
    28     5     6    1
    29     6     7    1
    30     7     8    1
    31     7     9    1
    32    17    18   ar
    33    18    19   ar
    34    19    14   ar
    35     8     1    1
    36     9     3    1
    37    35    30   ar
    38    24    25    1
@<TRIPOS>MOLECULE
*****
 35 38 0 0 0
SMALL
GASTEIGER

@<TRIPOS>ATOM
      1 N         139.1238  143.8250  161.7754 N.3     1  UNL1       -0.2684
      2 C         138.4088  142.7084  161.0740 C.3     1  UNL1        0.1035
      3 C         139.1467  141.8426  160.0964 C.3     1  UNL1        0.1470
      4 C         139.8845  140.9767  159.1186 C.3     1  UNL1        0.1035
      5 N         141.3374  141.2275  158.8423 N.3     1  UNL1       -0.2673
      6 C         142.0524  142.3441  159.5438 C.3     1  UNL1        0.1035
      7 C         141.3145  143.2099  160.5214 C.3     1  UNL1        0.1470
      8 C         140.5767  144.0758  161.4991 C.3     1  UNL1        0.1035
      9 O         140.5995  142.0934  159.8201 O.3     1  UNL1       -0.3530
     10 C         138.3860  144.6909  162.7531 C.3     1  UNL1        0.0761
     11 C         138.9483  144.9207  164.1246 C.3     1  UNL1        0.0646
     12 C         138.6546  143.9482  165.2283 C.3     1  UNL1        0.2068
     13 O         138.5669  142.4806  164.9310 O.3     1  UNL1       -0.4754
     14 C         141.9350  139.7403  166.1129 C.ar    1  UNL1        0.0686
     15 C         140.6267  139.6792  166.8440 C.ar    1  UNL1        0.0134
     16 C         139.5040  140.5926  166.4501 C.ar    1  UNL1        0.0376
     17 C         139.6896  141.5672  165.3250 C.ar    1  UNL1        0.1386
     18 C         140.9979  141.6283  164.5939 C.ar    1  UNL1        0.0376
     19 C         142.1206  140.7149  164.9878 C.ar    1  UNL1        0.0134
     20 N         144.1804  137.9135  166.9008 N.1     1  UNL1       -0.1908
     21 C         143.0577  138.8269  166.5068 C.1     1  UNL1        0.1004
     22 C         142.0752  140.3616  157.8647 C.3     1  UNL1        0.0913
     23 C         142.6685  139.0595  158.3149 C.3     1  UNL1        0.1084
     24 N         143.7239  139.0449  159.3806 N.3     1  UNL1       -0.1816
     25 H         144.0207  140.0115  159.5144 H       1  UNL1        0.1485
     26 S         143.4087  138.4965  160.7407 S.O2    1  UNL1        0.0451
     27 O         143.7906  139.8090  161.3584 O.2     1  UNL1       -0.1572
     28 O         143.0267  137.1841  160.1231 O.2     1  UNL1       -0.1572
     29 C         143.0934  137.9481  162.1009 C.3     1  UNL1        0.1952
     30 C         141.6911  138.0139  162.6295 C.ar    1  UNL1        0.0029
     31 C         141.2786  137.1348  163.7728 C.ar    1  UNL1       -0.0025
     32 C         139.8764  137.2005  164.3014 C.ar    1  UNL1       -0.0003
     33 C         138.8867  138.1453  163.6866 C.ar    1  UNL1       -0.0000
     34 C         139.2992  139.0243  162.5434 C.ar    1  UNL1       -0.0003
     35 C         140.7014  138.9586  162.0148 C.ar    1  UNL1       -0.0025
@<TRIPOS>BOND
     1    20    21    3
     2    21    14    1
     3    14    15   ar
     4    15    16   ar
     5    16    17   ar
     6    17    13    1
     7    13    12    1
     8    12    11    1
     9    11    10    1
    10    10     1    1
    11     1     2    1
    12     2     3    1
    13     3     4    1
    14     4     5    1
    15     5    22    1
    16    22    23    1
    17    23    24    1
    18    24    26    1
    19    26    27    2
    20    26    28    2
    21    26    29    1
    22    29    30    1
    23    30    31   ar
    24    31    32   ar
    25    32    33   ar
    26    33    34   ar
    27    34    35   ar
    28     5     6    1
    29     6     7    1
    30     7     8    1
    31     7     9    1
    32    17    18   ar
    33    18    19   ar
    34    19    14   ar
    35     8     1    1
    36     9     3    1
    37    35    30   ar
    38    24    25    1
@<TRIPOS>MOLECULE
*****
 35 38 0 0 0
SMALL
GASTEIGER

@<TRIPOS>ATOM
      1 N         142.9577  143.7106  162.2757 N.3     1  UNL1       -0.2684
      2 C         143.3352  142.7084  161.2255 C.3     1  UNL1        0.1035
      3 C         142.3148  142.2474  160.2274 C.3     1  UNL1        0.1470
      4 C         141.2943  141.7865  159.2292 C.3     1  UNL1        0.1035
      5 N         139.8964  142.3278  159.2814 N.3     1  UNL1       -0.2673
      6 C         139.5189  143.3301  160.3317 C.3     1  UNL1        0.1035
      7 C         140.5393  143.7910  161.3297 C.3     1  UNL1        0.1470
      8 C         141.5598  144.2519  162.3278 C.3     1  UNL1        0.1035
      9 O         140.9169  142.7888  160.2795 O.3     1  UNL1       -0.3530
     10 C         143.9782  144.1715  163.2738 C.3     1  UNL1        0.0761
     11 C         144.7318  143.1672  164.0944 C.3     1  UNL1        0.0646
     12 C         144.0495  142.4622  165.2291 C.3     1  UNL1        0.2068
     13 O         142.7382  142.9722  165.7490 O.3     1  UNL1       -0.4754
     14 C         139.4255  140.0847  166.7177 C.ar    1  UNL1        0.0686
     15 C         139.2076  141.1606  165.6955 C.ar    1  UNL1        0.0134
     16 C         140.3118  142.1231  165.3725 C.ar    1  UNL1        0.0376
     17 C         141.6340  142.0097  166.0719 C.ar    1  UNL1        0.1386
     18 C         141.8519  140.9339  167.0942 C.ar    1  UNL1        0.0376
     19 C         140.7476  139.9714  167.4171 C.ar    1  UNL1        0.0134
     20 N         137.2171  138.1597  167.3636 N.1     1  UNL1       -0.1908
     21 C         138.3213  139.1222  167.0406 C.1     1  UNL1        0.1004
     22 C         138.8759  141.8669  158.2833 C.3     1  UNL1        0.0913
     23 C         137.9003  140.7886  158.6515 C.3     1  UNL1        0.1084
     24 N         138.3977  139.4736  159.1742 N.3     1  UNL1       -0.1816
     25 H         139.3678  139.3845  158.8717 H       1  UNL1        0.1485
     26 S         138.3766  139.1959  160.6481 S.O2    1  UNL1        0.0451
     27 O         139.1888  137.9547  160.4259 O.2     1  UNL1       -0.1572
     28 O         137.5643  140.4372  160.8702 O.2     1  UNL1       -0.1572
     29 C         138.3554  138.9183  162.1220 C.3     1  UNL1        0.1952
     30 C         139.6435  138.7563  162.8733 C.ar    1  UNL1        0.0029
     31 C         139.7850  137.6651  163.8929 C.ar    1  UNL1       -0.0025
     32 C         141.0732  137.5032  164.6441 C.ar    1  UNL1       -0.0003
     33 C         142.2198  138.4323  164.3758 C.ar    1  UNL1       -0.0000
     34 C         142.0783  139.5234  163.3563 C.ar    1  UNL1       -0.0003
     35 C         140.7901  139.6854  162.6051 C.ar    1  UNL1       -0.0025
@<TRIPOS>BOND
     1    20    21    3
     2    21    14    1
     3    14    15   ar
     4    15    16   ar
     5    16    17   ar
     6    17    13    1
     7    13    12    1
     8    12    11    1
     9    11    10    1
    10    10     1    1
    11     1     2    1
    12     2     3    1
    13     3     4    1
    14     4     5    1
    15     5    22    1
    16    22    23    1
    17    23    24    1
    18    24    26    1
    19    26    27    2
    20    26    28    2
    21    26    29    1
    22    29    30    1
    23    30    31   ar
    24    31    32   ar
    25    32    33   ar
    26    33    34   ar
    27    34    35   ar
    28     5     6    1
    29     6     7    1
    30     7     8    1
    31     7     9    1
    32    17    18   ar
    33    18    19   ar
    34    19    14   ar
    35     8     1    1
    36     9     3    1
    37    35    30   ar
    38    24    25    1
