@<TRIPOS>MOLECULE
*****
 41 44 0 0 0
SMALL
GASTEIGER

@<TRIPOS>ATOM
      1 C         140.9222  137.9840  157.2988 C.3     1  UNL1        0.0577
      2 C         142.2726  138.5478  157.6280 C.3     1  UNL1        0.0177
      3 C         142.4278  139.5010  158.7758 C.3     1  UNL1        0.0212
      4 C         141.2327  139.8904  159.5942 C.3     1  UNL1        0.0771
      5 C         139.8823  139.3266  159.2650 C.3     1  UNL1        0.0436
      6 C         139.7270  138.3734  158.1172 C.3     1  UNL1        0.0194
      7 N         141.3879  140.8436  160.7420 N.am    1  UNL1       -0.2797
      8 C         141.1255  142.3200  160.7037 C.3     1  UNL1        0.0956
      9 C         141.4083  142.8766  162.0676 C.3     1  UNL1        0.0505
     10 C         141.8454  141.7443  162.9489 C.3     1  UNL1        0.1507
     11 C         141.8328  140.4878  162.1296 C.2     1  UNL1        0.2435
     12 O         142.2006  139.1163  162.6131 O.2     1  UNL1       -0.2731
     13 N         142.2279  141.8498  164.3954 N.am    1  UNL1       -0.2948
     14 C         141.2430  142.3797  165.3950 C.2     1  UNL1        0.2461
     15 O         139.8755  142.8041  164.9480 O.2     1  UNL1       -0.2701
     16 H         143.1255  141.5713  164.6888 H       1  UNL1        0.1501
     17 C         141.6256  142.4852  166.8414 C.ar    1  UNL1        0.0533
     18 C         143.0478  142.2562  167.2596 C.ar    1  UNL1        0.0045
     19 C         143.4304  142.3617  168.7062 C.ar    1  UNL1        0.0001
     20 C         142.3909  142.6962  169.7346 C.ar    1  UNL1        0.0039
     21 C         140.9687  142.9253  169.3163 C.ar    1  UNL1        0.0716
     22 C         140.5860  142.8198  167.8697 C.ar    1  UNL1        0.0084
     23 C         139.9292  143.2598  170.3447 C.3     1  UNL1        0.4186
     24 F         138.8896  143.5943  171.3730 F       1  UNL1       -0.1659
     25 F         140.2473  144.7177  170.1920 F       1  UNL1       -0.1659
     26 F         139.6110  141.8019  170.4973 F       1  UNL1       -0.1659
     27 N         140.7670  137.0308  156.1510 N.3     1  UNL1       -0.2741
     28 C         139.4356  136.8789  155.4771 C.3     1  UNL1        0.0896
     29 C         142.5330  135.1696  156.5596 C.3     1  UNL1        0.0173
     30 C         141.9431  136.2295  155.6772 C.3     1  UNL1        0.0576
     31 C         142.5295  136.4881  154.3210 C.3     1  UNL1        0.0173
     32 C         138.6870  139.7160  160.0834 C.3     1  UNL1        0.1576
     33 S         138.6382  139.3829  161.5451 S.O2    1  UNL1        0.0087
     34 O         139.1461  138.0032  161.2477 O.2     1  UNL1       -0.1686
     35 O         138.1303  140.7626  161.8426 O.2     1  UNL1       -0.1686
     36 C         138.5894  139.0498  163.0069 C.ar    1  UNL1        0.1057
     37 C         138.8998  137.6571  163.4695 C.ar    1  UNL1        0.0183
     38 C         138.8510  137.3239  164.9312 C.ar    1  UNL1        0.0013
     39 C         138.4918  138.3835  165.9303 C.ar    1  UNL1        0.0001
     40 C         138.1814  139.7762  165.4677 C.ar    1  UNL1        0.0013
     41 C         138.2302  140.1093  164.0060 C.ar    1  UNL1        0.0183
@<TRIPOS>BOND
     1    29    30    1
     2    30    31    1
     3    30    27    1
     4    27    28    1
     5     1    27    1
     6     1     2    1
     7     2     3    1
     8     3     4    1
     9     4     7    1
    10     7     8    1
    11     8     9    1
    12     9    10    1
    13    10    13    1
    14    13    14   am
    15    14    15    2
    16    14    17    1
    17    17    18   ar
    18    18    19   ar
    19    19    20   ar
    20    20    21   ar
    21    21    23    1
    22    23    24    1
    23    23    25    1
    24    23    26    1
    25    21    22   ar
    26    10    11    1
    27    11    12    2
    28     4     5    1
    29     5    32    1
    30    32    33    1
    31    33    34    2
    32    33    35    2
    33    33    36    1
    34    36    37   ar
    35    37    38   ar
    36    38    39   ar
    37    39    40   ar
    38    40    41   ar
    39     5     6    1
    40     6     1    1
    41    11     7   am
    42    41    36   ar
    43    22    17   ar
    44    13    16    1
@<TRIPOS>MOLECULE
*****
 41 44 0 0 0
SMALL
GASTEIGER

@<TRIPOS>ATOM
      1 C         143.4907  142.4882  161.8630 C.3     1  UNL1        0.0577
      2 C         144.3541  142.3700  160.6422 C.3     1  UNL1        0.0177
      3 C         143.9116  141.5173  159.4902 C.3     1  UNL1        0.0212
      4 C         142.6056  140.7828  159.5590 C.3     1  UNL1        0.0771
      5 C         141.7421  140.9010  160.7798 C.3     1  UNL1        0.0436
      6 C         142.1847  141.7537  161.9318 C.3     1  UNL1        0.0194
      7 N         142.1631  139.9300  158.4071 N.am    1  UNL1       -0.2797
      8 C         141.4083  140.4018  157.1997 C.3     1  UNL1        0.0956
      9 C         141.1763  139.2192  156.3066 C.3     1  UNL1        0.0505
     10 C         141.7878  138.0165  156.9620 C.3     1  UNL1        0.1507
     11 C         142.3977  138.4558  158.2601 C.2     1  UNL1        0.2435
     12 O         143.1160  137.5754  159.2394 O.2     1  UNL1       -0.2731
     13 N         141.7893  136.6196  156.4153 N.am    1  UNL1       -0.2948
     14 C         143.0447  136.0449  155.8291 C.2     1  UNL1        0.2461
     15 O         144.2987  136.8670  155.7897 O.2     1  UNL1       -0.2701
     16 H         140.9662  136.0801  156.4412 H       1  UNL1        0.1501
     17 C         143.0461  134.6482  155.2825 C.ar    1  UNL1        0.0533
     18 C         142.4211  134.3642  153.9488 C.ar    1  UNL1        0.0045
     19 C         142.4224  132.9673  153.4020 C.ar    1  UNL1        0.0001
     20 C         143.0487  131.8545  154.1890 C.ar    1  UNL1        0.0039
     21 C         143.6737  132.1385  155.5227 C.ar    1  UNL1        0.0716
     22 C         143.6724  133.5353  156.0694 C.ar    1  UNL1        0.0084
     23 C         144.3001  131.0256  156.3097 C.3     1  UNL1        0.4186
     24 F         144.9264  129.9128  157.0966 F       1  UNL1       -0.1659
     25 F         142.9883  130.2983  156.3252 F       1  UNL1       -0.1659
     26 F         145.6118  131.7530  156.2942 F       1  UNL1       -0.1659
     27 N         143.9332  143.3409  163.0149 N.3     1  UNL1       -0.2741
     28 C         143.6126  144.8062  163.0301 C.3     1  UNL1        0.0896
     29 C         145.6254  141.5784  163.8981 C.3     1  UNL1        0.0173
     30 C         144.6963  142.7284  164.1518 C.3     1  UNL1        0.0576
     31 C         144.5304  143.2659  165.5424 C.3     1  UNL1        0.0173
     32 C         140.4360  140.1664  160.8487 C.3     1  UNL1        0.1576
     33 S         139.8857  139.7379  162.1766 S.O2    1  UNL1        0.0087
     34 O         140.8014  138.5499  162.1727 O.2     1  UNL1       -0.1686
     35 O         138.9700  140.9259  162.1805 O.2     1  UNL1       -0.1686
     36 C         139.3354  139.3093  163.5046 C.ar    1  UNL1        0.1057
     37 C         138.7092  140.3204  164.4186 C.ar    1  UNL1        0.0183
     38 C         138.1588  139.8919  165.7465 C.ar    1  UNL1        0.0013
     39 C         138.2348  138.4522  166.1605 C.ar    1  UNL1        0.0001
     40 C         138.8610  137.4410  165.2465 C.ar    1  UNL1        0.0013
     41 C         139.4113  137.8695  163.9186 C.ar    1  UNL1        0.0183
@<TRIPOS>BOND
     1    29    30    1
     2    30    31    1
     3    30    27    1
     4    27    28    1
     5     1    27    1
     6     1     2    1
     7     2     3    1
     8     3     4    1
     9     4     7    1
    10     7     8    1
    11     8     9    1
    12     9    10    1
    13    10    13    1
    14    13    14   am
    15    14    15    2
    16    14    17    1
    17    17    18   ar
    18    18    19   ar
    19    19    20   ar
    20    20    21   ar
    21    21    23    1
    22    23    24    1
    23    23    25    1
    24    23    26    1
    25    21    22   ar
    26    10    11    1
    27    11    12    2
    28     4     5    1
    29     5    32    1
    30    32    33    1
    31    33    34    2
    32    33    35    2
    33    33    36    1
    34    36    37   ar
    35    37    38   ar
    36    38    39   ar
    37    39    40   ar
    38    40    41   ar
    39     5     6    1
    40     6     1    1
    41    11     7   am
    42    41    36   ar
    43    22    17   ar
    44    13    16    1
@<TRIPOS>MOLECULE
*****
 41 44 0 0 0
SMALL
GASTEIGER

@<TRIPOS>ATOM
      1 C         139.6029  139.9238  167.5586 C.3     1  UNL1        0.0577
      2 C         138.4048  139.1337  167.1226 C.3     1  UNL1        0.0177
      3 C         138.1585  138.8884  165.6635 C.3     1  UNL1        0.0212
      4 C         139.1104  139.4333  164.6402 C.3     1  UNL1        0.0771
      5 C         140.3085  140.2234  165.0762 C.3     1  UNL1        0.0436
      6 C         140.5548  140.4687  166.5354 C.3     1  UNL1        0.0194
      7 N         138.8641  139.1880  163.1811 N.am    1  UNL1       -0.2797
      8 C         139.3460  138.0069  162.3919 C.3     1  UNL1        0.0956
      9 C         138.8724  138.1697  160.9779 C.3     1  UNL1        0.0505
     10 C         138.0978  139.4515  160.8932 C.3     1  UNL1        0.1507
     11 C         138.0927  140.0808  162.2548 C.2     1  UNL1        0.2435
     12 O         137.4322  141.3756  162.6252 O.2     1  UNL1       -0.2731
     13 N         137.4433  140.0065  159.6630 N.am    1  UNL1       -0.2948
     14 C         138.1891  140.9675  158.7853 C.2     1  UNL1        0.2461
     15 O         139.5894  141.3736  159.1379 O.2     1  UNL1       -0.2701
     16 H         136.5243  139.7400  159.4315 H       1  UNL1        0.1501
     17 C         137.5345  141.5225  157.5551 C.ar    1  UNL1        0.0533
     18 C         136.4569  140.7423  156.8621 C.ar    1  UNL1        0.0045
     19 C         135.8023  141.2973  155.6318 C.ar    1  UNL1        0.0001
     20 C         136.2253  142.6323  155.0945 C.ar    1  UNL1        0.0039
     21 C         137.3029  143.4125  155.7875 C.ar    1  UNL1        0.0716
     22 C         137.9575  142.8575  157.0178 C.ar    1  UNL1        0.0084
     23 C         137.7258  144.7475  155.2502 C.3     1  UNL1        0.4186
     24 F         138.1488  146.0826  154.7129 F       1  UNL1       -0.1659
     25 F         138.8100  144.8202  156.2842 F       1  UNL1       -0.1659
     26 F         136.6416  144.6749  154.2162 F       1  UNL1       -0.1659
     27 N         139.8492  140.1691  169.0178 N.3     1  UNL1       -0.2741
     28 C         138.6932  140.2511  169.9701 C.3     1  UNL1        0.0896
     29 C         141.7664  141.6954  169.8805 C.3     1  UNL1        0.0173
     30 C         141.2514  140.3323  169.5247 C.3     1  UNL1        0.0576
     31 C         142.1388  139.1323  169.6757 C.3     1  UNL1        0.0173
     32 C         141.2604  140.7684  164.0530 C.3     1  UNL1        0.1576
     33 S         140.9391  142.0452  163.3345 S.O2    1  UNL1        0.0087
     34 O         141.3725  141.4254  162.0391 O.2     1  UNL1       -0.1686
     35 O         140.5056  142.6650  164.6298 O.2     1  UNL1       -0.1686
     36 C         140.6177  143.3221  162.6159 C.ar    1  UNL1        0.1057
     37 C         139.6024  144.2681  163.1854 C.ar    1  UNL1        0.0183
     38 C         139.2810  145.5450  162.4670 C.ar    1  UNL1        0.0013
     39 C         139.9748  145.8759  161.1790 C.ar    1  UNL1        0.0001
     40 C         140.9901  144.9299  160.6094 C.ar    1  UNL1        0.0013
     41 C         141.3115  143.6530  161.3279 C.ar    1  UNL1        0.0183
@<TRIPOS>BOND
     1    29    30    1
     2    30    31    1
     3    30    27    1
     4    27    28    1
     5     1    27    1
     6     1     2    1
     7     2     3    1
     8     3     4    1
     9     4     7    1
    10     7     8    1
    11     8     9    1
    12     9    10    1
    13    10    13    1
    14    13    14   am
    15    14    15    2
    16    14    17    1
    17    17    18   ar
    18    18    19   ar
    19    19    20   ar
    20    20    21   ar
    21    21    23    1
    22    23    24    1
    23    23    25    1
    24    23    26    1
    25    21    22   ar
    26    10    11    1
    27    11    12    2
    28     4     5    1
    29     5    32    1
    30    32    33    1
    31    33    34    2
    32    33    35    2
    33    33    36    1
    34    36    37   ar
    35    37    38   ar
    36    38    39   ar
    37    39    40   ar
    38    40    41   ar
    39     5     6    1
    40     6     1    1
    41    11     7   am
    42    41    36   ar
    43    22    17   ar
    44    13    16    1
@<TRIPOS>MOLECULE
*****
 41 44 0 0 0
SMALL
GASTEIGER

@<TRIPOS>ATOM
      1 C         141.4520  138.8496  157.8990 C.3     1  UNL1        0.0577
      2 C         142.3894  138.2149  158.8830 C.3     1  UNL1        0.0177
      3 C         142.0083  138.1241  160.3309 C.3     1  UNL1        0.0212
      4 C         140.6897  138.6680  160.7949 C.3     1  UNL1        0.0771
      5 C         139.7522  139.3028  159.8110 C.3     1  UNL1        0.0436
      6 C         140.1334  139.3936  158.3630 C.3     1  UNL1        0.0194
      7 N         140.3086  138.5773  162.2428 N.am    1  UNL1       -0.2797
      8 C         139.3823  137.5650  162.8489 C.3     1  UNL1        0.0956
      9 C         139.2881  137.8449  164.3196 C.3     1  UNL1        0.0505
     10 C         140.1561  139.0302  164.6224 C.3     1  UNL1        0.1507
     11 C         140.7868  139.4827  163.3389 C.2     1  UNL1        0.2435
     12 O         141.7302  140.6380  163.1795 O.2     1  UNL1       -0.2731
     13 N         140.3580  139.6534  165.9718 N.am    1  UNL1       -0.2948
     14 C         141.6656  139.4857  166.6873 C.2     1  UNL1        0.2461
     15 O         142.7714  138.6947  166.0535 O.2     1  UNL1       -0.2701
     16 H         139.6323  140.1725  166.3878 H       1  UNL1        0.1501
     17 C         141.8675  140.1089  168.0366 C.ar    1  UNL1        0.0533
     18 C         142.5686  139.3430  169.1192 C.ar    1  UNL1        0.0045
     19 C         142.7704  139.9663  170.4687 C.ar    1  UNL1        0.0001
     20 C         142.2712  141.3554  170.7355 C.ar    1  UNL1        0.0039
     21 C         141.5701  142.1212  169.6529 C.ar    1  UNL1        0.0716
     22 C         141.3682  141.4980  168.3035 C.ar    1  UNL1        0.0084
     23 C         141.0709  143.5103  169.9197 C.3     1  UNL1        0.4186
     24 F         140.5716  144.8994  170.1866 F       1  UNL1       -0.1659
     25 F         142.4424  143.9165  170.3712 F       1  UNL1       -0.1659
     26 F         139.6993  143.1041  169.4683 F       1  UNL1       -0.1659
     27 N         141.8331  138.9404  156.4511 N.3     1  UNL1       -0.2741
     28 C         141.7224  140.2494  155.7271 C.3     1  UNL1        0.0896
     29 C         143.6148  137.7735  154.9632 C.3     1  UNL1        0.0173
     30 C         142.3249  137.7222  155.7272 C.3     1  UNL1        0.0576
     31 C         141.5269  136.4527  155.7672 C.3     1  UNL1        0.0173
     32 C         138.4336  139.8468  160.2749 C.3     1  UNL1        0.1576
     33 S         138.3934  140.9904  161.2447 S.O2    1  UNL1        0.0087
     34 O         137.3994  140.2438  162.0840 O.2     1  UNL1       -0.1686
     35 O         139.3874  141.7370  160.4054 O.2     1  UNL1       -0.1686
     36 C         138.3532  142.1340  162.2146 C.ar    1  UNL1        0.1057
     37 C         138.8081  143.4975  161.7856 C.ar    1  UNL1        0.0183
     38 C         138.7679  144.6411  162.7554 C.ar    1  UNL1        0.0013
     39 C         138.2729  144.4212  164.1542 C.ar    1  UNL1        0.0001
     40 C         137.8180  143.0578  164.5831 C.ar    1  UNL1        0.0013
     41 C         137.8582  141.9142  163.6134 C.ar    1  UNL1        0.0183
@<TRIPOS>BOND
     1    29    30    1
     2    30    31    1
     3    30    27    1
     4    27    28    1
     5     1    27    1
     6     1     2    1
     7     2     3    1
     8     3     4    1
     9     4     7    1
    10     7     8    1
    11     8     9    1
    12     9    10    1
    13    10    13    1
    14    13    14   am
    15    14    15    2
    16    14    17    1
    17    17    18   ar
    18    18    19   ar
    19    19    20   ar
    20    20    21   ar
    21    21    23    1
    22    23    24    1
    23    23    25    1
    24    23    26    1
    25    21    22   ar
    26    10    11    1
    27    11    12    2
    28     4     5    1
    29     5    32    1
    30    32    33    1
    31    33    34    2
    32    33    35    2
    33    33    36    1
    34    36    37   ar
    35    37    38   ar
    36    38    39   ar
    37    39    40   ar
    38    40    41   ar
    39     5     6    1
    40     6     1    1
    41    11     7   am
    42    41    36   ar
    43    22    17   ar
    44    13    16    1
@<TRIPOS>MOLECULE
*****
 41 44 0 0 0
SMALL
GASTEIGER

@<TRIPOS>ATOM
      1 C         140.6486  143.5971  160.6353 C.3     1  UNL1        0.0577
      2 C         141.3722  143.5806  159.3215 C.3     1  UNL1        0.0177
      3 C         141.2149  142.4130  158.3931 C.3     1  UNL1        0.0212
      4 C         140.3338  141.2618  158.7785 C.3     1  UNL1        0.0771
      5 C         139.6101  141.2783  160.0922 C.3     1  UNL1        0.0436
      6 C         139.7675  142.4459  161.0206 C.3     1  UNL1        0.0194
      7 N         140.1764  140.0942  157.8501 N.am    1  UNL1       -0.2797
      8 C         139.2599  140.0277  156.6645 C.3     1  UNL1        0.0956
      9 C         139.4250  138.6805  156.0260 C.3     1  UNL1        0.0505
     10 C         140.4435  137.9144  156.8169 C.3     1  UNL1        0.1507
     11 C         140.9079  138.7881  157.9442 C.2     1  UNL1        0.2435
     12 O         141.9253  138.4202  158.9833 O.2     1  UNL1       -0.2731
     13 N         140.9149  136.5194  156.5307 N.am    1  UNL1       -0.2948
     14 C         142.3267  136.2818  156.0830 C.2     1  UNL1        0.2461
     15 O         143.2671  137.4392  155.9216 O.2     1  UNL1       -0.2701
     16 H         140.2977  135.7598  156.6367 H       1  UNL1        0.1501
     17 C         142.7980  134.8869  155.7969 C.ar    1  UNL1        0.0533
     18 C         142.3975  134.2068  154.5213 C.ar    1  UNL1        0.0045
     19 C         142.8688  132.8117  154.2351 C.ar    1  UNL1        0.0001
     20 C         143.7406  132.0969  155.2245 C.ar    1  UNL1        0.0039
     21 C         144.1411  132.7769  156.5001 C.ar    1  UNL1        0.0716
     22 C         143.6698  134.1720  156.7863 C.ar    1  UNL1        0.0084
     23 C         145.0130  132.0621  157.4894 C.3     1  UNL1        0.4186
     24 F         145.8848  131.3472  158.4788 F       1  UNL1       -0.1659
     25 F         144.9716  133.2599  158.3914 F       1  UNL1       -0.1659
     26 F         145.0543  130.8642  156.5875 F       1  UNL1       -0.1659
     27 N         140.8059  144.7647  161.5637 N.3     1  UNL1       -0.2741
     28 C         140.0321  146.0263  161.3199 C.3     1  UNL1        0.0896
     29 C         143.2030  144.4438  162.5129 C.3     1  UNL1        0.0173
     30 C         141.7371  144.6707  162.7358 C.3     1  UNL1        0.0576
     31 C         141.2025  144.8035  164.1311 C.3     1  UNL1        0.0173
     32 C         138.7290  140.1271  160.4776 C.3     1  UNL1        0.1576
     33 S         138.6551  139.6857  161.9093 S.O2    1  UNL1        0.0087
     34 O         137.4177  140.5118  162.1000 O.2     1  UNL1       -0.1686
     35 O         139.8925  138.8597  161.7186 O.2     1  UNL1       -0.1686
     36 C         138.5811  139.2444  163.3410 C.ar    1  UNL1        0.1057
     37 C         138.9091  137.8271  163.7069 C.ar    1  UNL1        0.0183
     38 C         138.8351  137.3857  165.1385 C.ar    1  UNL1        0.0013
     39 C         138.4331  138.3616  166.2043 C.ar    1  UNL1        0.0001
     40 C         138.1051  139.7788  165.8385 C.ar    1  UNL1        0.0013
     41 C         138.1790  140.2202  164.4069 C.ar    1  UNL1        0.0183
@<TRIPOS>BOND
     1    29    30    1
     2    30    31    1
     3    30    27    1
     4    27    28    1
     5     1    27    1
     6     1     2    1
     7     2     3    1
     8     3     4    1
     9     4     7    1
    10     7     8    1
    11     8     9    1
    12     9    10    1
    13    10    13    1
    14    13    14   am
    15    14    15    2
    16    14    17    1
    17    17    18   ar
    18    18    19   ar
    19    19    20   ar
    20    20    21   ar
    21    21    23    1
    22    23    24    1
    23    23    25    1
    24    23    26    1
    25    21    22   ar
    26    10    11    1
    27    11    12    2
    28     4     5    1
    29     5    32    1
    30    32    33    1
    31    33    34    2
    32    33    35    2
    33    33    36    1
    34    36    37   ar
    35    37    38   ar
    36    38    39   ar
    37    39    40   ar
    38    40    41   ar
    39     5     6    1
    40     6     1    1
    41    11     7   am
    42    41    36   ar
    43    22    17   ar
    44    13    16    1
@<TRIPOS>MOLECULE
*****
 41 44 0 0 0
SMALL
GASTEIGER

@<TRIPOS>ATOM
      1 C         139.4383  139.7477  167.9105 C.3     1  UNL1        0.0577
      2 C         138.1184  139.2037  167.4503 C.3     1  UNL1        0.0177
      3 C         137.8715  138.9706  165.9892 C.3     1  UNL1        0.0212
      4 C         138.9446  139.2815  164.9883 C.3     1  UNL1        0.0771
      5 C         140.2645  139.8255  165.4485 C.3     1  UNL1        0.0436
      6 C         140.5114  140.0586  166.9096 C.3     1  UNL1        0.0194
      7 N         138.6977  139.0484  163.5273 N.am    1  UNL1       -0.2797
      8 C         138.9761  137.7794  162.7775 C.3     1  UNL1        0.0956
      9 C         138.5796  137.9901  161.3463 C.3     1  UNL1        0.0505
     10 C         138.0560  139.3892  161.2115 C.3     1  UNL1        0.1507
     11 C         138.1290  140.0433  162.5594 C.2     1  UNL1        0.2435
     12 O         137.7074  141.4460  162.8827 O.2     1  UNL1       -0.2731
     13 N         137.5485  140.0231  159.9503 N.am    1  UNL1       -0.2948
     14 C         138.4305  140.9528  159.1706 C.2     1  UNL1        0.2461
     15 O         139.8200  141.2486  159.6521 O.2     1  UNL1       -0.2701
     16 H         136.6366  139.8290  159.6342 H       1  UNL1        0.1501
     17 C         137.9230  141.5866  157.9094 C.ar    1  UNL1        0.0533
     18 C         138.5909  142.8148  157.3659 C.ar    1  UNL1        0.0045
     19 C         138.0833  143.4487  156.1047 C.ar    1  UNL1        0.0001
     20 C         136.9080  142.8543  155.3870 C.ar    1  UNL1        0.0039
     21 C         136.2400  141.6261  155.9304 C.ar    1  UNL1        0.0716
     22 C         136.7476  140.9922  157.1917 C.ar    1  UNL1        0.0084
     23 C         135.0646  141.0317  155.2127 C.3     1  UNL1        0.4186
     24 F         133.8892  140.4373  154.4950 F       1  UNL1       -0.1659
     25 F         134.6295  140.3603  156.4815 F       1  UNL1       -0.1659
     26 F         135.4998  141.7032  153.9440 F       1  UNL1       -0.1659
     27 N         139.6852  139.9808  169.3715 N.3     1  UNL1       -0.2741
     28 C         138.5387  139.9606  170.3385 C.3     1  UNL1        0.0896
     29 C         142.0387  139.0922  170.0203 C.3     1  UNL1        0.0173
     30 C         141.0786  140.2342  169.8657 C.3     1  UNL1        0.0576
     31 C         141.5119  141.6296  170.2051 C.3     1  UNL1        0.0173
     32 C         141.3377  140.1364  164.4476 C.3     1  UNL1        0.1576
     33 S         142.0377  141.4624  164.4860 S.O2    1  UNL1        0.0087
     34 O         140.8374  142.1140  163.8659 O.2     1  UNL1       -0.1686
     35 O         143.2380  140.8108  165.1062 O.2     1  UNL1       -0.1686
     36 C         142.7377  142.7885  164.5244 C.ar    1  UNL1        0.1057
     37 C         142.1983  143.9445  163.7353 C.ar    1  UNL1        0.0183
     38 C         142.8982  145.2706  163.7737 C.ar    1  UNL1        0.0013
     39 C         144.1376  145.4407  164.6012 C.ar    1  UNL1        0.0001
     40 C         144.6771  144.2848  165.3904 C.ar    1  UNL1        0.0013
     41 C         143.9771  142.9587  165.3520 C.ar    1  UNL1        0.0183
@<TRIPOS>BOND
     1    29    30    1
     2    30    31    1
     3    30    27    1
     4    27    28    1
     5     1    27    1
     6     1     2    1
     7     2     3    1
     8     3     4    1
     9     4     7    1
    10     7     8    1
    11     8     9    1
    12     9    10    1
    13    10    13    1
    14    13    14   am
    15    14    15    2
    16    14    17    1
    17    17    18   ar
    18    18    19   ar
    19    19    20   ar
    20    20    21   ar
    21    21    23    1
    22    23    24    1
    23    23    25    1
    24    23    26    1
    25    21    22   ar
    26    10    11    1
    27    11    12    2
    28     4     5    1
    29     5    32    1
    30    32    33    1
    31    33    34    2
    32    33    35    2
    33    33    36    1
    34    36    37   ar
    35    37    38   ar
    36    38    39   ar
    37    39    40   ar
    38    40    41   ar
    39     5     6    1
    40     6     1    1
    41    11     7   am
    42    41    36   ar
    43    22    17   ar
    44    13    16    1
@<TRIPOS>MOLECULE
*****
 41 44 0 0 0
SMALL
GASTEIGER

@<TRIPOS>ATOM
      1 C         140.2579  143.8092  161.2854 C.3     1  UNL1        0.0577
      2 C         139.8304  143.6273  159.8592 C.3     1  UNL1        0.0177
      3 C         140.4999  142.5948  159.0014 C.3     1  UNL1        0.0212
      4 C         141.5968  141.7443  159.5698 C.3     1  UNL1        0.0771
      5 C         142.0244  141.9262  160.9960 C.3     1  UNL1        0.0436
      6 C         141.3549  142.9587  161.8538 C.3     1  UNL1        0.0194
      7 N         142.2663  140.7118  158.7121 N.am    1  UNL1       -0.2797
      8 C         143.2371  140.9832  157.6012 C.3     1  UNL1        0.0956
      9 C         143.6533  139.6658  157.0171 C.3     1  UNL1        0.0505
     10 C         142.9398  138.5801  157.7670 C.3     1  UNL1        0.1507
     11 C         142.0826  139.2266  158.8145 C.2     1  UNL1        0.2435
     12 O         141.1971  138.5131  159.7927 O.2     1  UNL1       -0.2731
     13 N         143.0620  137.1067  157.5138 N.am    1  UNL1       -0.2948
     14 C         142.1262  136.4300  156.5565 C.2     1  UNL1        0.2461
     15 O         141.0681  137.2268  155.8524 O.2     1  UNL1       -0.2701
     16 H         143.7564  136.5838  157.9759 H       1  UNL1        0.1501
     17 C         142.2484  134.9567  156.3034 C.ar    1  UNL1        0.0533
     18 C         141.3551  134.2917  155.2984 C.ar    1  UNL1        0.0045
     19 C         141.4774  132.8182  155.0453 C.ar    1  UNL1        0.0001
     20 C         142.4929  132.0098  155.7971 C.ar    1  UNL1        0.0039
     21 C         143.3862  132.6747  156.8020 C.ar    1  UNL1        0.0716
     22 C         143.2639  134.1482  157.0552 C.ar    1  UNL1        0.0084
     23 C         144.4016  131.8663  157.5538 C.3     1  UNL1        0.4186
     24 F         145.4171  131.0578  158.3055 F       1  UNL1       -0.1659
     25 F         145.0451  133.1297  158.0433 F       1  UNL1       -0.1659
     26 F         143.7582  130.6028  157.0643 F       1  UNL1       -0.1659
     27 N         139.5884  144.8417  162.1432 N.3     1  UNL1       -0.2741
     28 C         139.6709  146.2928  161.7724 C.3     1  UNL1        0.0896
     29 C         137.5442  143.6729  163.2409 C.3     1  UNL1        0.0173
     30 C         138.8365  144.4231  163.3717 C.3     1  UNL1        0.0576
     31 C         139.3769  144.7547  164.7312 C.3     1  UNL1        0.0173
     32 C         143.1214  141.0756  161.5645 C.3     1  UNL1        0.1576
     33 S         143.0610  140.6318  162.9961 S.O2    1  UNL1        0.0087
     34 O         141.9293  139.7059  162.6613 O.2     1  UNL1       -0.1686
     35 O         144.1926  141.5577  163.3309 O.2     1  UNL1       -0.1686
     36 C         143.0005  140.1879  164.4277 C.ar    1  UNL1        0.1057
     37 C         143.5507  138.8493  164.8217 C.ar    1  UNL1        0.0183
     38 C         143.4903  138.4054  166.2532 C.ar    1  UNL1        0.0013
     39 C         142.8796  139.3002  167.2907 C.ar    1  UNL1        0.0001
     40 C         142.3294  140.6389  166.8967 C.ar    1  UNL1        0.0013
     41 C         142.3899  141.0827  165.4652 C.ar    1  UNL1        0.0183
@<TRIPOS>BOND
     1    29    30    1
     2    30    31    1
     3    30    27    1
     4    27    28    1
     5     1    27    1
     6     1     2    1
     7     2     3    1
     8     3     4    1
     9     4     7    1
    10     7     8    1
    11     8     9    1
    12     9    10    1
    13    10    13    1
    14    13    14   am
    15    14    15    2
    16    14    17    1
    17    17    18   ar
    18    18    19   ar
    19    19    20   ar
    20    20    21   ar
    21    21    23    1
    22    23    24    1
    23    23    25    1
    24    23    26    1
    25    21    22   ar
    26    10    11    1
    27    11    12    2
    28     4     5    1
    29     5    32    1
    30    32    33    1
    31    33    34    2
    32    33    35    2
    33    33    36    1
    34    36    37   ar
    35    37    38   ar
    36    38    39   ar
    37    39    40   ar
    38    40    41   ar
    39     5     6    1
    40     6     1    1
    41    11     7   am
    42    41    36   ar
    43    22    17   ar
    44    13    16    1
@<TRIPOS>MOLECULE
*****
 41 44 0 0 0
SMALL
GASTEIGER

@<TRIPOS>ATOM
      1 C         139.4946  139.7118  167.7935 C.3     1  UNL1        0.0577
      2 C         138.1637  139.1808  167.3500 C.3     1  UNL1        0.0177
      3 C         137.8940  138.9564  165.8916 C.3     1  UNL1        0.0212
      4 C         138.9551  139.2630  164.8768 C.3     1  UNL1        0.0771
      5 C         140.2860  139.7940  165.3203 C.3     1  UNL1        0.0436
      6 C         140.5557  140.0184  166.7787 C.3     1  UNL1        0.0194
      7 N         138.6854  139.0386  163.4184 N.am    1  UNL1       -0.2797
      8 C         139.0897  137.8333  162.6222 C.3     1  UNL1        0.0956
      9 C         138.6182  138.0299  161.2119 C.3     1  UNL1        0.0505
     10 C         137.9224  139.3566  161.1364 C.3     1  UNL1        0.1507
     11 C         137.9640  139.9800  162.5001 C.2     1  UNL1        0.2435
     12 O         137.3856  141.3112  162.8789 O.2     1  UNL1       -0.2731
     13 N         137.2953  139.9549  159.9122 N.am    1  UNL1       -0.2948
     14 C         138.1432  140.6944  158.9202 C.2     1  UNL1        0.2461
     15 O         139.6184  140.8357  159.1524 O.2     1  UNL1       -0.2701
     16 H         136.3271  139.8622  159.7598 H       1  UNL1        0.1501
     17 C         137.5160  141.2927  157.6961 C.ar    1  UNL1        0.0533
     18 C         136.4255  140.5563  156.9760 C.ar    1  UNL1        0.0045
     19 C         135.7982  141.1546  155.7518 C.ar    1  UNL1        0.0001
     20 C         136.2615  142.4892  155.2476 C.ar    1  UNL1        0.0039
     21 C         137.3520  143.2256  155.9677 C.ar    1  UNL1        0.0716
     22 C         137.9793  142.6273  157.1919 C.ar    1  UNL1        0.0084
     23 C         137.8153  144.5602  155.4635 C.3     1  UNL1        0.4186
     24 F         138.2786  145.8948  154.9594 F       1  UNL1       -0.1659
     25 F         136.7455  144.5345  154.4125 F       1  UNL1       -0.1659
     26 F         138.8851  144.5859  156.5146 F       1  UNL1       -0.1659
     27 N         139.7643  139.9362  169.2519 N.3     1  UNL1       -0.2741
     28 C         138.6310  139.9263  170.2345 C.3     1  UNL1        0.0896
     29 C         142.0866  139.0072  169.9544 C.3     1  UNL1        0.0173
     30 C         141.1674  140.1706  169.7278 C.3     1  UNL1        0.0576
     31 C         141.6512  141.5684  169.9770 C.3     1  UNL1        0.0173
     32 C         141.3472  140.1006  164.3055 C.3     1  UNL1        0.1576
     33 S         141.9993  141.4513  164.2868 S.O2    1  UNL1        0.0087
     34 O         143.2937  140.8324  164.7241 O.2     1  UNL1       -0.1686
     35 O         140.7048  142.0702  163.8496 O.2     1  UNL1       -0.1686
     36 C         142.6514  142.8021  164.2682 C.ar    1  UNL1        0.1057
     37 C         142.1609  143.8587  163.3233 C.ar    1  UNL1        0.0183
     38 C         142.8129  145.2094  163.3046 C.ar    1  UNL1        0.0013
     39 C         143.9555  145.5034  164.2309 C.ar    1  UNL1        0.0001
     40 C         144.4460  144.4468  165.1758 C.ar    1  UNL1        0.0013
     41 C         143.7940  143.0961  165.1944 C.ar    1  UNL1        0.0183
@<TRIPOS>BOND
     1    29    30    1
     2    30    31    1
     3    30    27    1
     4    27    28    1
     5     1    27    1
     6     1     2    1
     7     2     3    1
     8     3     4    1
     9     4     7    1
    10     7     8    1
    11     8     9    1
    12     9    10    1
    13    10    13    1
    14    13    14   am
    15    14    15    2
    16    14    17    1
    17    17    18   ar
    18    18    19   ar
    19    19    20   ar
    20    20    21   ar
    21    21    23    1
    22    23    24    1
    23    23    25    1
    24    23    26    1
    25    21    22   ar
    26    10    11    1
    27    11    12    2
    28     4     5    1
    29     5    32    1
    30    32    33    1
    31    33    34    2
    32    33    35    2
    33    33    36    1
    34    36    37   ar
    35    37    38   ar
    36    38    39   ar
    37    39    40   ar
    38    40    41   ar
    39     5     6    1
    40     6     1    1
    41    11     7   am
    42    41    36   ar
    43    22    17   ar
    44    13    16    1
@<TRIPOS>MOLECULE
*****
 41 44 0 0 0
SMALL
GASTEIGER

@<TRIPOS>ATOM
      1 C         139.7146  139.9603  157.6327 C.3     1  UNL1        0.0577
      2 C         138.4482  140.3376  158.3425 C.3     1  UNL1        0.0177
      3 C         138.2793  140.0150  159.7976 C.3     1  UNL1        0.0212
      4 C         139.3768  139.3151  160.5430 C.3     1  UNL1        0.0771
      5 C         140.6432  138.9378  159.8332 C.3     1  UNL1        0.0436
      6 C         140.8121  139.2604  158.3781 C.3     1  UNL1        0.0194
      7 N         139.2079  138.9925  161.9981 N.am    1  UNL1       -0.2797
      8 C         138.8288  137.6573  162.5670 C.3     1  UNL1        0.0956
      9 C         138.7750  137.7880  164.0603 C.3     1  UNL1        0.0505
     10 C         139.1208  139.2040  164.4144 C.3     1  UNL1        0.1507
     11 C         139.3884  139.9484  163.1399 C.2     1  UNL1        0.2435
     12 O         139.7695  141.3948  163.0270 O.2     1  UNL1       -0.2731
     13 N         139.1875  139.7754  165.7997 N.am    1  UNL1       -0.2948
     14 C         140.5094  139.8966  166.4982 C.2     1  UNL1        0.2461
     15 O         141.7647  139.4465  165.8114 O.2     1  UNL1       -0.2701
     16 H         138.3636  140.0708  166.2505 H       1  UNL1        0.1501
     17 C         140.5760  140.4679  167.8835 C.ar    1  UNL1        0.0533
     18 C         139.4309  140.2703  168.8320 C.ar    1  UNL1        0.0045
     19 C         139.4974  140.8416  170.2174 C.ar    1  UNL1        0.0001
     20 C         140.7090  141.6106  170.6542 C.ar    1  UNL1        0.0039
     21 C         141.8541  141.8082  169.7056 C.ar    1  UNL1        0.0716
     22 C         141.7875  141.2369  168.3202 C.ar    1  UNL1        0.0084
     23 C         143.0657  142.5772  170.1424 C.3     1  UNL1        0.4186
     24 F         144.2772  143.3461  170.5792 F       1  UNL1       -0.1659
     25 F         142.2265  143.8106  170.2986 F       1  UNL1       -0.1659
     26 F         143.9048  141.3437  169.9862 F       1  UNL1       -0.1659
     27 N         139.8835  140.2829  156.1776 N.3     1  UNL1       -0.2741
     28 C         140.8975  141.3013  155.7479 C.3     1  UNL1        0.0896
     29 C         138.3880  140.3769  154.0552 C.3     1  UNL1        0.0173
     30 C         139.0384  139.5871  155.1521 C.3     1  UNL1        0.0576
     31 C         138.8437  138.1015  155.2235 C.3     1  UNL1        0.0173
     32 C         141.7408  138.2379  160.5786 C.3     1  UNL1        0.1576
     33 S         142.7343  139.0336  161.3721 S.O2    1  UNL1        0.0087
     34 O         143.0316  139.8689  160.1623 O.2     1  UNL1       -0.1686
     35 O         142.4369  138.1983  162.5820 O.2     1  UNL1       -0.1686
     36 C         143.7278  139.8293  162.1657 C.ar    1  UNL1        0.1057
     37 C         144.2841  139.2743  163.4434 C.ar    1  UNL1        0.0183
     38 C         145.2776  140.0700  164.2370 C.ar    1  UNL1        0.0013
     39 C         145.7148  141.4207  163.7529 C.ar    1  UNL1        0.0001
     40 C         145.1585  141.9757  162.4752 C.ar    1  UNL1        0.0013
     41 C         144.1650  141.1800  161.6816 C.ar    1  UNL1        0.0183
@<TRIPOS>BOND
     1    29    30    1
     2    30    31    1
     3    30    27    1
     4    27    28    1
     5     1    27    1
     6     1     2    1
     7     2     3    1
     8     3     4    1
     9     4     7    1
    10     7     8    1
    11     8     9    1
    12     9    10    1
    13    10    13    1
    14    13    14   am
    15    14    15    2
    16    14    17    1
    17    17    18   ar
    18    18    19   ar
    19    19    20   ar
    20    20    21   ar
    21    21    23    1
    22    23    24    1
    23    23    25    1
    24    23    26    1
    25    21    22   ar
    26    10    11    1
    27    11    12    2
    28     4     5    1
    29     5    32    1
    30    32    33    1
    31    33    34    2
    32    33    35    2
    33    33    36    1
    34    36    37   ar
    35    37    38   ar
    36    38    39   ar
    37    39    40   ar
    38    40    41   ar
    39     5     6    1
    40     6     1    1
    41    11     7   am
    42    41    36   ar
    43    22    17   ar
    44    13    16    1
