@<TRIPOS>MOLECULE
*****
 30 34 0 0 0
SMALL
GASTEIGER

@<TRIPOS>ATOM
      1 C         138.0333  142.5894  156.7460 C.ar    1  UNL1        0.2228
      2 N         138.8111  143.3364  155.7034 N.ar    1  UNL1       -0.1240
      3 N         140.0026  143.9572  156.3704 N.ar    1  UNL1       -0.1315
      4 C         139.9612  143.5938  157.8251 C.ar    1  UNL1        0.1616
      5 N         138.7441  142.7484  158.0572 N.ar    1  UNL1       -0.2918
      6 C         138.4403  142.2327  159.4326 C.3     1  UNL1        0.1303
      7 C         139.3537  142.5623  160.5760 C.3     1  UNL1        0.1186
      8 N         140.5708  143.4077  160.3438 N.am    1  UNL1       -0.2688
      9 C         141.4842  143.7374  161.4871 C.2     1  UNL1        0.2493
     10 O         142.7013  144.5827  161.2550 O.2     1  UNL1       -0.2699
     11 C         140.8746  143.9234  158.9684 C.3     1  UNL1        0.1343
     12 C         142.0917  144.7688  158.7363 C.3     1  UNL1        0.0298
     13 C         141.1804  143.2216  162.8625 C.ar    1  UNL1        0.0536
     14 C         141.7025  141.8832  163.2939 C.ar    1  UNL1        0.0045
     15 C         141.3987  141.3675  164.6693 C.ar    1  UNL1        0.0006
     16 C         140.5728  142.1902  165.6133 C.ar    1  UNL1        0.0060
     17 C         140.0507  143.5286  165.1819 C.ar    1  UNL1        0.0006
     18 C         140.3545  144.0443  163.8065 C.ar    1  UNL1        0.0045
     19 C         140.2689  141.6744  166.9887 C.ar    1  UNL1        0.0295
     20 C         139.5842  140.3800  167.3137 C.ar    1  UNL1        0.0070
     21 C         139.4886  140.2682  168.8064 C.ar    1  UNL1        0.0075
     22 C         140.1143  141.4936  169.4041 C.ar    1  UNL1        0.0354
     23 S         140.5966  142.3627  168.2806 S.2     1  UNL1       -0.0864
     24 C         134.6032  141.1373  155.6543 C.ar    1  UNL1        0.1809
     25 N         135.0332  140.1275  156.6769 N.ar    1  UNL1       -0.0601
     26 O         136.3705  140.5486  157.2103 O.2     1  UNL1       -0.3295
     27 C         136.7669  141.8186  156.5174 C.ar    1  UNL1        0.2958
     28 N         135.6747  142.1824  155.5558 N.ar    1  UNL1       -0.1885
     29 C         132.0123  141.3081  155.5642 C.3     1  UNL1        0.0085
     30 C         133.3260  141.1072  154.8684 C.3     1  UNL1        0.0693
@<TRIPOS>BOND
     1    29    30    1
     2    30    24    1
     3    24    25   ar
     4    25    26   ar
     5    26    27   ar
     6    27     1    1
     7     1     2   ar
     8     2     3   ar
     9     3     4   ar
    10     4     5   ar
    11     5     6    1
    12     6     7    1
    13     7     8    1
    14     8     9   am
    15     9    10    2
    16     9    13    1
    17    13    14   ar
    18    14    15   ar
    19    15    16   ar
    20    16    19    1
    21    19    20   ar
    22    20    21   ar
    23    21    22   ar
    24    22    23   ar
    25    16    17   ar
    26    17    18   ar
    27     8    11    1
    28    11    12    1
    29    27    28   ar
    30    28    24   ar
    31     5     1   ar
    32    18    13   ar
    33    11     4    1
    34    23    19   ar
@<TRIPOS>MOLECULE
*****
 30 34 0 0 0
SMALL
GASTEIGER

@<TRIPOS>ATOM
      1 C         138.7614  142.3015  158.6764 C.ar    1  UNL1        0.2228
      2 N         137.8859  141.3654  157.8971 N.ar    1  UNL1       -0.1240
      3 N         137.6040  140.1698  158.7579 N.ar    1  UNL1       -0.1315
      4 C         138.3053  140.3669  160.0692 C.ar    1  UNL1        0.1616
      5 N         139.0206  141.6844  160.0188 N.ar    1  UNL1       -0.2918
      6 C         139.8155  142.1519  161.2017 C.3     1  UNL1        0.1303
      7 C         139.8952  141.3019  162.4352 C.3     1  UNL1        0.1186
      8 N         139.1799  139.9845  162.4855 N.am    1  UNL1       -0.2688
      9 C         139.2595  139.1345  163.7189 C.2     1  UNL1        0.2493
     10 O         138.5442  137.8170  163.7693 O.2     1  UNL1       -0.2699
     11 C         138.3849  139.5169  161.3025 C.3     1  UNL1        0.1343
     12 C         137.6696  138.1994  161.3529 C.3     1  UNL1        0.0298
     13 C         140.0544  139.6020  164.9019 C.ar    1  UNL1        0.0536
     14 C         139.3986  140.4317  165.9656 C.ar    1  UNL1        0.0045
     15 C         140.1937  140.8992  167.1487 C.ar    1  UNL1        0.0006
     16 C         141.6444  140.5371  167.2678 C.ar    1  UNL1        0.0060
     17 C         142.3002  139.7075  166.2040 C.ar    1  UNL1        0.0006
     18 C         141.5052  139.2399  165.0211 C.ar    1  UNL1        0.0045
     19 C         142.4394  141.0046  168.4508 C.ar    1  UNL1        0.0295
     20 C         143.2151  142.2853  168.5414 C.ar    1  UNL1        0.0070
     21 C         143.8533  142.3457  169.8975 C.ar    1  UNL1        0.0075
     22 C         143.4721  141.1023  170.6451 C.ar    1  UNL1        0.0354
     23 S         142.5982  140.2734  169.7509 S.2     1  UNL1       -0.0864
     24 C         139.9666  145.4486  156.7505 C.ar    1  UNL1        0.1809
     25 N         140.2184  145.8633  158.1699 N.ar    1  UNL1       -0.0601
     26 O         139.7975  144.7348  159.0642 O.2     1  UNL1       -0.3295
     27 C         139.2857  143.6227  158.1974 C.ar    1  UNL1        0.2958
     28 N         139.3902  144.0638  156.7675 N.ar    1  UNL1       -0.1885
     29 C         139.3118  147.3871  155.1494 C.3     1  UNL1        0.0085
     30 C         140.2428  146.2737  155.5287 C.3     1  UNL1        0.0693
@<TRIPOS>BOND
     1    29    30    1
     2    30    24    1
     3    24    25   ar
     4    25    26   ar
     5    26    27   ar
     6    27     1    1
     7     1     2   ar
     8     2     3   ar
     9     3     4   ar
    10     4     5   ar
    11     5     6    1
    12     6     7    1
    13     7     8    1
    14     8     9   am
    15     9    10    2
    16     9    13    1
    17    13    14   ar
    18    14    15   ar
    19    15    16   ar
    20    16    19    1
    21    19    20   ar
    22    20    21   ar
    23    21    22   ar
    24    22    23   ar
    25    16    17   ar
    26    17    18   ar
    27     8    11    1
    28    11    12    1
    29    27    28   ar
    30    28    24   ar
    31     5     1   ar
    32    18    13   ar
    33    11     4    1
    34    23    19   ar
@<TRIPOS>MOLECULE
*****
 30 34 0 0 0
SMALL
GASTEIGER

@<TRIPOS>ATOM
      1 C         140.1641  141.2668  157.9690 C.ar    1  UNL1        0.2228
      2 N         139.9473  142.4798  157.1137 N.ar    1  UNL1       -0.1240
      3 N         140.0942  143.6927  157.9840 N.ar    1  UNL1       -0.1315
      4 C         140.4018  143.2293  159.3770 C.ar    1  UNL1        0.1616
      5 N         140.4450  141.7299  159.3678 N.ar    1  UNL1       -0.2918
      6 C         140.7346  140.9801  160.6342 C.3     1  UNL1        0.1303
      7 C         140.9809  141.7296  161.9100 C.3     1  UNL1        0.1186
      8 N         140.9377  143.2290  161.9193 N.am    1  UNL1       -0.2688
      9 C         141.1841  143.9785  163.1950 C.2     1  UNL1        0.2493
     10 O         141.1409  145.4779  163.2042 O.2     1  UNL1       -0.2699
     11 C         140.6482  143.9788  160.6527 C.3     1  UNL1        0.1343
     12 C         140.6050  145.4781  160.6620 C.3     1  UNL1        0.0298
     13 C         141.4736  143.2287  164.4614 C.ar    1  UNL1        0.0536
     14 C         142.8841  142.8486  164.8022 C.ar    1  UNL1        0.0045
     15 C         143.1736  142.0987  166.0687 C.ar    1  UNL1        0.0006
     16 C         142.0527  141.7290  166.9943 C.ar    1  UNL1        0.0060
     17 C         140.6423  142.1091  166.6535 C.ar    1  UNL1        0.0006
     18 C         140.3527  142.8589  165.3871 C.ar    1  UNL1        0.0045
     19 C         142.3422  140.9791  168.2608 C.ar    1  UNL1        0.0295
     20 C         142.1875  139.5013  168.4655 C.ar    1  UNL1        0.0070
     21 C         142.5870  139.1843  169.8761 C.ar    1  UNL1        0.0075
     22 C         142.9886  140.4664  170.5434 C.ar    1  UNL1        0.0354
     23 S         142.8373  141.5757  169.5450 S.2     1  UNL1       -0.0864
     24 C         140.7752  137.6226  156.7808 C.ar    1  UNL1        0.1809
     25 N         139.2762  137.6705  156.8094 N.ar    1  UNL1       -0.0601
     26 O         138.8649  139.0416  157.2580 O.2     1  UNL1       -0.3295
     27 C         140.1096  139.8408  157.5066 C.ar    1  UNL1        0.2958
     28 N         141.2903  138.9639  157.2117 N.ar    1  UNL1       -0.1885
     29 C         142.9481  136.2212  157.0361 C.3     1  UNL1        0.0085
     30 C         141.6122  136.4408  156.3900 C.3     1  UNL1        0.0693
@<TRIPOS>BOND
     1    29    30    1
     2    30    24    1
     3    24    25   ar
     4    25    26   ar
     5    26    27   ar
     6    27     1    1
     7     1     2   ar
     8     2     3   ar
     9     3     4   ar
    10     4     5   ar
    11     5     6    1
    12     6     7    1
    13     7     8    1
    14     8     9   am
    15     9    10    2
    16     9    13    1
    17    13    14   ar
    18    14    15   ar
    19    15    16   ar
    20    16    19    1
    21    19    20   ar
    22    20    21   ar
    23    21    22   ar
    24    22    23   ar
    25    16    17   ar
    26    17    18   ar
    27     8    11    1
    28    11    12    1
    29    27    28   ar
    30    28    24   ar
    31     5     1   ar
    32    18    13   ar
    33    11     4    1
    34    23    19   ar
@<TRIPOS>MOLECULE
*****
 30 34 0 0 0
SMALL
GASTEIGER

@<TRIPOS>ATOM
      1 C         135.9355  142.1744  155.2389 C.ar    1  UNL1        0.2228
      2 N         135.8631  142.8727  153.9134 N.ar    1  UNL1       -0.1240
      3 N         137.0069  143.8400  153.8360 N.ar    1  UNL1       -0.1315
      4 C         137.7863  143.7395  155.1137 C.ar    1  UNL1        0.1616
      5 N         137.1241  142.7101  155.9808 N.ar    1  UNL1       -0.2918
      6 C         137.6889  142.3935  157.3338 C.3     1  UNL1        0.1303
      7 C         138.9161  143.1063  157.8197 C.3     1  UNL1        0.1186
      8 N         139.5783  144.1357  156.9527 N.am    1  UNL1       -0.2688
      9 C         140.8053  144.8485  157.4386 C.2     1  UNL1        0.2493
     10 O         141.4676  145.8779  156.5715 O.2     1  UNL1       -0.2699
     11 C         139.0133  144.4523  155.5996 C.3     1  UNL1        0.1343
     12 C         139.6756  145.4817  154.7325 C.3     1  UNL1        0.0298
     13 C         141.3702  144.5319  158.7916 C.ar    1  UNL1        0.0536
     14 C         140.8317  145.2224  160.0094 C.ar    1  UNL1        0.0045
     15 C         141.3966  144.9058  161.3625 C.ar    1  UNL1        0.0006
     16 C         142.5000  143.8987  161.4976 C.ar    1  UNL1        0.0060
     17 C         143.0385  143.2082  160.2797 C.ar    1  UNL1        0.0006
     18 C         142.4737  143.5248  158.9267 C.ar    1  UNL1        0.0045
     19 C         143.0649  143.5821  162.8507 C.ar    1  UNL1        0.0295
     20 C         143.8181  144.5305  163.7357 C.ar    1  UNL1        0.0070
     21 C         144.1945  143.7960  164.9882 C.ar    1  UNL1        0.0075
     22 C         143.6739  142.3935  164.8773 C.ar    1  UNL1        0.0354
     23 S         142.9758  142.2613  163.5562 S.2     1  UNL1       -0.0864
     24 C         132.9457  139.9605  156.3457 C.ar    1  UNL1        0.1809
     25 N         134.1039  139.0583  156.6536 N.ar    1  UNL1       -0.0601
     26 O         135.3649  139.7779  156.2764 O.2     1  UNL1       -0.3295
     27 C         134.9860  141.1247  155.7355 C.ar    1  UNL1        0.2958
     28 N         133.4908  141.2376  155.7784 N.ar    1  UNL1       -0.1885
     29 C         131.0464  138.2126  156.6419 C.3     1  UNL1        0.0085
     30 C         131.4968  139.6415  156.5666 C.3     1  UNL1        0.0693
@<TRIPOS>BOND
     1    29    30    1
     2    30    24    1
     3    24    25   ar
     4    25    26   ar
     5    26    27   ar
     6    27     1    1
     7     1     2   ar
     8     2     3   ar
     9     3     4   ar
    10     4     5   ar
    11     5     6    1
    12     6     7    1
    13     7     8    1
    14     8     9   am
    15     9    10    2
    16     9    13    1
    17    13    14   ar
    18    14    15   ar
    19    15    16   ar
    20    16    19    1
    21    19    20   ar
    22    20    21   ar
    23    21    22   ar
    24    22    23   ar
    25    16    17   ar
    26    17    18   ar
    27     8    11    1
    28    11    12    1
    29    27    28   ar
    30    28    24   ar
    31     5     1   ar
    32    18    13   ar
    33    11     4    1
    34    23    19   ar
@<TRIPOS>MOLECULE
*****
 30 34 0 0 0
SMALL
GASTEIGER

@<TRIPOS>ATOM
      1 C         141.7124  140.1558  157.9008 C.ar    1  UNL1        0.2228
      2 N         140.5337  139.7654  157.0592 N.ar    1  UNL1       -0.1240
      3 N         139.3256  139.7183  157.9471 N.ar    1  UNL1       -0.1315
      4 C         139.7577  140.0796  159.3374 C.ar    1  UNL1        0.1616
      5 N         141.2329  140.3499  159.3087 N.ar    1  UNL1       -0.2918
      6 C         141.9488  140.7380  160.5684 C.3     1  UNL1        0.1303
      7 C         141.1896  140.8558  161.8568 C.3     1  UNL1        0.1186
      8 N         139.7145  140.5854  161.8854 N.am    1  UNL1       -0.2688
      9 C         138.9553  140.7031  163.1737 C.2     1  UNL1        0.2493
     10 O         137.4801  140.4328  163.2023 O.2     1  UNL1       -0.2699
     11 C         138.9985  140.1973  160.6256 C.3     1  UNL1        0.1343
     12 C         137.5233  139.9270  160.6543 C.3     1  UNL1        0.0298
     13 C         139.6712  141.0912  164.4333 C.ar    1  UNL1        0.0536
     14 C         140.2741  140.0335  165.3096 C.ar    1  UNL1        0.0045
     15 C         140.9901  140.4217  166.5693 C.ar    1  UNL1        0.0006
     16 C         141.1032  141.8674  166.9527 C.ar    1  UNL1        0.0060
     17 C         140.5003  142.9251  166.0764 C.ar    1  UNL1        0.0006
     18 C         139.7844  142.5370  164.8167 C.ar    1  UNL1        0.0045
     19 C         141.8192  142.2555  168.2124 C.ar    1  UNL1        0.0295
     20 C         143.2884  142.1044  168.4738 C.ar    1  UNL1        0.0070
     21 C         143.5689  142.6184  169.8547 C.ar    1  UNL1        0.0075
     22 C         142.2728  143.0872  170.4469 C.ar    1  UNL1        0.0354
     23 S         141.1914  142.8630  169.4318 S.2     1  UNL1       -0.0864
     24 C         145.2919  141.2900  156.9177 C.ar    1  UNL1        0.1809
     25 N         145.2960  139.8689  156.4375 N.ar    1  UNL1       -0.0601
     26 O         143.9556  139.2711  156.7473 O.2     1  UNL1       -0.3295
     27 C         143.1231  140.3226  157.4190 C.ar    1  UNL1        0.2958
     28 N         143.9489  141.5704  157.5243 N.ar    1  UNL1       -0.1885
     29 C         147.5418  142.0076  155.8346 C.3     1  UNL1        0.0085
     30 C         146.4307  142.2603  156.8102 C.3     1  UNL1        0.0693
@<TRIPOS>BOND
     1    29    30    1
     2    30    24    1
     3    24    25   ar
     4    25    26   ar
     5    26    27   ar
     6    27     1    1
     7     1     2   ar
     8     2     3   ar
     9     3     4   ar
    10     4     5   ar
    11     5     6    1
    12     6     7    1
    13     7     8    1
    14     8     9   am
    15     9    10    2
    16     9    13    1
    17    13    14   ar
    18    14    15   ar
    19    15    16   ar
    20    16    19    1
    21    19    20   ar
    22    20    21   ar
    23    21    22   ar
    24    22    23   ar
    25    16    17   ar
    26    17    18   ar
    27     8    11    1
    28    11    12    1
    29    27    28   ar
    30    28    24   ar
    31     5     1   ar
    32    18    13   ar
    33    11     4    1
    34    23    19   ar
@<TRIPOS>MOLECULE
*****
 30 34 0 0 0
SMALL
GASTEIGER

@<TRIPOS>ATOM
      1 C         142.9111  140.1141  158.1437 C.ar    1  UNL1        0.2228
      2 N         142.0988  139.2098  157.2650 N.ar    1  UNL1       -0.1240
      3 N         140.9780  138.6478  158.0884 N.ar    1  UNL1       -0.1315
      4 C         141.0976  139.2048  159.4760 C.ar    1  UNL1        0.1616
      5 N         142.2924  140.1111  159.5102 N.ar    1  UNL1       -0.2918
      6 C         142.6626  140.8165  160.7811 C.3     1  UNL1        0.1303
      7 C         141.8380  140.6156  162.0180 C.3     1  UNL1        0.1186
      8 N         140.6432  139.7093  161.9838 N.am    1  UNL1       -0.2688
      9 C         139.8186  139.5084  163.2206 C.2     1  UNL1        0.2493
     10 O         138.6239  138.6022  163.1864 O.2     1  UNL1       -0.2699
     11 C         140.2731  139.0039  160.7128 C.3     1  UNL1        0.1343
     12 C         139.0783  138.0977  160.6786 C.3     1  UNL1        0.0298
     13 C         140.1888  140.2138  164.4915 C.ar    1  UNL1        0.0536
     14 C         139.6046  141.5606  164.7994 C.ar    1  UNL1        0.0045
     15 C         139.9748  142.2660  166.0704 C.ar    1  UNL1        0.0006
     16 C         140.9293  141.6246  167.0335 C.ar    1  UNL1        0.0060
     17 C         141.5135  140.2778  166.7256 C.ar    1  UNL1        0.0006
     18 C         141.1433  139.5724  165.4547 C.ar    1  UNL1        0.0045
     19 C         141.2995  142.3299  168.3045 C.ar    1  UNL1        0.0295
     20 C         140.4556  143.3323  169.0346 C.ar    1  UNL1        0.0070
     21 C         141.2132  143.7786  170.2499 C.ar    1  UNL1        0.0075
     22 C         142.5254  143.0521  170.2709 C.ar    1  UNL1        0.0354
     23 S         142.5787  142.1567  169.0685 S.2     1  UNL1       -0.0864
     24 C         146.0694  141.6404  156.4820 C.ar    1  UNL1        0.1809
     25 N         145.9344  142.5074  157.6987 N.ar    1  UNL1       -0.0601
     26 O         144.7348  142.0411  158.4693 O.2     1  UNL1       -0.3295
     27 C         144.1285  140.8861  157.7288 C.ar    1  UNL1        0.2958
     28 N         144.9533  140.6384  156.5006 N.ar    1  UNL1       -0.1885
     29 C         148.5649  141.9569  155.8323 C.3     1  UNL1        0.0085
     30 C         147.1336  141.7554  155.4312 C.3     1  UNL1        0.0693
@<TRIPOS>BOND
     1    29    30    1
     2    30    24    1
     3    24    25   ar
     4    25    26   ar
     5    26    27   ar
     6    27     1    1
     7     1     2   ar
     8     2     3   ar
     9     3     4   ar
    10     4     5   ar
    11     5     6    1
    12     6     7    1
    13     7     8    1
    14     8     9   am
    15     9    10    2
    16     9    13    1
    17    13    14   ar
    18    14    15   ar
    19    15    16   ar
    20    16    19    1
    21    19    20   ar
    22    20    21   ar
    23    21    22   ar
    24    22    23   ar
    25    16    17   ar
    26    17    18   ar
    27     8    11    1
    28    11    12    1
    29    27    28   ar
    30    28    24   ar
    31     5     1   ar
    32    18    13   ar
    33    11     4    1
    34    23    19   ar
@<TRIPOS>MOLECULE
*****
 30 34 0 0 0
SMALL
GASTEIGER

@<TRIPOS>ATOM
      1 C         143.7819  140.6274  157.4696 C.ar    1  UNL1        0.2228
      2 N         142.8875  140.0175  156.4313 N.ar    1  UNL1       -0.1240
      3 N         141.7316  139.3722  157.1366 N.ar    1  UNL1       -0.1315
      4 C         141.9116  139.5832  158.6107 C.ar    1  UNL1        0.1616
      5 N         143.1788  140.3590  158.8165 N.ar    1  UNL1       -0.2918
      6 C         143.6199  140.7207  160.2038 C.3     1  UNL1        0.1303
      7 C         142.7936  140.3067  161.3854 C.3     1  UNL1        0.1186
      8 N         141.5264  139.5310  161.1796 N.am    1  UNL1       -0.2688
      9 C         140.7002  139.1170  162.3611 C.2     1  UNL1        0.2493
     10 O         139.4330  138.3412  162.1553 O.2     1  UNL1       -0.2699
     11 C         141.0854  139.1692  159.7922 C.3     1  UNL1        0.1343
     12 C         139.8182  138.3934  159.5864 C.3     1  UNL1        0.0298
     13 C         141.1413  139.4787  163.7484 C.ar    1  UNL1        0.0536
     14 C         142.0579  138.5647  164.5062 C.ar    1  UNL1        0.0045
     15 C         142.4989  138.9266  165.8936 C.ar    1  UNL1        0.0006
     16 C         142.0233  140.2023  166.5230 C.ar    1  UNL1        0.0060
     17 C         141.1066  141.1163  165.7651 C.ar    1  UNL1        0.0006
     18 C         140.6656  140.7545  164.3778 C.ar    1  UNL1        0.0045
     19 C         142.4643  140.5641  167.9103 C.ar    1  UNL1        0.0295
     20 C         142.5018  139.6414  169.0924 C.ar    1  UNL1        0.0070
     21 C         143.0059  140.4192  170.2717 C.ar    1  UNL1        0.0075
     22 C         143.2800  141.8227  169.8186 C.ar    1  UNL1        0.0354
     23 S         142.9452  141.9122  168.3591 S.2     1  UNL1       -0.0864
     24 C         147.1137  142.1351  156.1692 C.ar    1  UNL1        0.1809
     25 N         146.9187  142.9133  157.4367 N.ar    1  UNL1       -0.0601
     26 O         145.6467  142.4432  158.0781 O.2     1  UNL1       -0.3295
     27 C         145.0558  141.3745  157.2070 C.ar    1  UNL1        0.2958
     28 N         145.9625  141.1841  156.0273 N.ar    1  UNL1       -0.1885
     29 C         149.5374  141.5346  155.4512 C.3     1  UNL1        0.0085
     30 C         148.2591  142.2822  155.2118 C.3     1  UNL1        0.0693
@<TRIPOS>BOND
     1    29    30    1
     2    30    24    1
     3    24    25   ar
     4    25    26   ar
     5    26    27   ar
     6    27     1    1
     7     1     2   ar
     8     2     3   ar
     9     3     4   ar
    10     4     5   ar
    11     5     6    1
    12     6     7    1
    13     7     8    1
    14     8     9   am
    15     9    10    2
    16     9    13    1
    17    13    14   ar
    18    14    15   ar
    19    15    16   ar
    20    16    19    1
    21    19    20   ar
    22    20    21   ar
    23    21    22   ar
    24    22    23   ar
    25    16    17   ar
    26    17    18   ar
    27     8    11    1
    28    11    12    1
    29    27    28   ar
    30    28    24   ar
    31     5     1   ar
    32    18    13   ar
    33    11     4    1
    34    23    19   ar
@<TRIPOS>MOLECULE
*****
 30 34 0 0 0
SMALL
GASTEIGER

@<TRIPOS>ATOM
      1 C         137.1985  142.2510  155.5167 C.ar    1  UNL1        0.2228
      2 N         137.5559  143.0645  154.3082 N.ar    1  UNL1       -0.1240
      3 N         138.6197  144.0440  154.7069 N.ar    1  UNL1       -0.1315
      4 C         138.9198  143.8358  156.1618 C.ar    1  UNL1        0.1616
      5 N         138.0415  142.7276  156.6623 N.ar    1  UNL1       -0.2918
      6 C         138.1227  142.2957  158.0964 C.3     1  UNL1        0.1303
      7 C         139.0824  142.9720  159.0301 C.3     1  UNL1        0.1186
      8 N         139.9607  144.0802  158.5297 N.am    1  UNL1       -0.2688
      9 C         140.9203  144.7565  159.4633 C.2     1  UNL1        0.2493
     10 O         141.7986  145.8646  158.9628 O.2     1  UNL1       -0.2699
     11 C         139.8794  144.5121  157.0954 C.3     1  UNL1        0.1343
     12 C         140.7577  145.6202  156.5949 C.3     1  UNL1        0.0298
     13 C         141.0015  144.3246  160.8975 C.ar    1  UNL1        0.0536
     14 C         141.9185  143.2053  161.2929 C.ar    1  UNL1        0.0045
     15 C         141.9997  142.7734  162.7271 C.ar    1  UNL1        0.0006
     16 C         141.1640  143.4608  163.7659 C.ar    1  UNL1        0.0060
     17 C         140.2471  144.5801  163.3705 C.ar    1  UNL1        0.0006
     18 C         140.1658  145.0120  161.9363 C.ar    1  UNL1        0.0045
     19 C         141.2453  143.0289  165.2001 C.ar    1  UNL1        0.0295
     20 C         140.1507  143.1449  166.2192 C.ar    1  UNL1        0.0070
     21 C         140.6643  142.5929  167.5159 C.ar    1  UNL1        0.0075
     22 C         142.0763  142.1357  167.2982 C.ar    1  UNL1        0.0354
     23 S         142.4354  142.4052  165.8669 S.2     1  UNL1       -0.0864
     24 C         134.0761  139.9662  155.8253 C.ar    1  UNL1        0.1809
     25 N         135.1364  138.9628  155.4801 N.ar    1  UNL1       -0.0601
     26 O         136.4351  139.6967  155.3224 O.2     1  UNL1       -0.3295
     27 C         136.1775  141.1534  155.5703 C.ar    1  UNL1        0.2958
     28 N         134.7195  141.3200  155.8811 N.ar    1  UNL1       -0.1885
     29 C         132.2310  138.4113  156.7887 C.3     1  UNL1        0.0085
     30 C         132.6268  139.6679  156.0716 C.3     1  UNL1        0.0693
@<TRIPOS>BOND
     1    29    30    1
     2    30    24    1
     3    24    25   ar
     4    25    26   ar
     5    26    27   ar
     6    27     1    1
     7     1     2   ar
     8     2     3   ar
     9     3     4   ar
    10     4     5   ar
    11     5     6    1
    12     6     7    1
    13     7     8    1
    14     8     9   am
    15     9    10    2
    16     9    13    1
    17    13    14   ar
    18    14    15   ar
    19    15    16   ar
    20    16    19    1
    21    19    20   ar
    22    20    21   ar
    23    21    22   ar
    24    22    23   ar
    25    16    17   ar
    26    17    18   ar
    27     8    11    1
    28    11    12    1
    29    27    28   ar
    30    28    24   ar
    31     5     1   ar
    32    18    13   ar
    33    11     4    1
    34    23    19   ar
@<TRIPOS>MOLECULE
*****
 30 34 0 0 0
SMALL
GASTEIGER

@<TRIPOS>ATOM
      1 C         138.6072  139.7197  155.8691 C.ar    1  UNL1        0.2228
      2 N         139.4377  139.1091  154.7794 N.ar    1  UNL1       -0.1240
      3 N         140.6161  138.4350  155.4173 N.ar    1  UNL1       -0.1315
      4 C         140.5140  138.6291  156.9012 C.ar    1  UNL1        0.1616
      5 N         139.2724  139.4231  157.1804 N.ar    1  UNL1       -0.2918
      6 C         138.9079  139.7734  158.5926 C.3     1  UNL1        0.1303
      7 C         139.7851  139.3297  159.7257 C.3     1  UNL1        0.1186
      8 N         141.0267  138.5357  159.4465 N.am    1  UNL1       -0.2688
      9 C         141.9038  138.0920  160.5795 C.2     1  UNL1        0.2493
     10 O         143.1454  137.2980  160.3002 O.2     1  UNL1       -0.2699
     11 C         141.3911  138.1854  158.0342 C.3     1  UNL1        0.1343
     12 C         142.6327  137.3914  157.7549 C.3     1  UNL1        0.0298
     13 C         141.5394  138.4423  161.9917 C.ar    1  UNL1        0.0536
     14 C         142.1543  139.6419  162.6494 C.ar    1  UNL1        0.0045
     15 C         141.7898  139.9922  164.0617 C.ar    1  UNL1        0.0006
     16 C         140.8104  139.1429  164.8162 C.ar    1  UNL1        0.0060
     17 C         140.1954  137.9432  164.1584 C.ar    1  UNL1        0.0006
     18 C         140.5599  137.5929  162.7462 C.ar    1  UNL1        0.0045
     19 C         140.4459  139.4931  166.2285 C.ar    1  UNL1        0.0295
     20 C         139.0774  139.3984  166.8353 C.ar    1  UNL1        0.0070
     21 C         139.1716  139.8464  168.2637 C.ar    1  UNL1        0.0075
     22 C         140.5984  140.2180  168.5398 C.ar    1  UNL1        0.0354
     23 S         141.3860  139.9996  167.2819 S.2     1  UNL1       -0.0864
     24 C         134.9815  141.0802  155.6079 C.ar    1  UNL1        0.1809
     25 N         135.7725  142.2782  155.1731 N.ar    1  UNL1       -0.0601
     26 O         137.2271  141.9143  155.2180 O.2     1  UNL1       -0.3295
     27 C         137.3349  140.4915  155.6806 C.ar    1  UNL1        0.2958
     28 N         135.9470  139.9760  155.9216 N.ar    1  UNL1       -0.1885
     29 C         132.8477  139.8988  156.5031 C.3     1  UNL1        0.0085
     30 C         133.4871  141.0005  155.7110 C.3     1  UNL1        0.0693
@<TRIPOS>BOND
     1    29    30    1
     2    30    24    1
     3    24    25   ar
     4    25    26   ar
     5    26    27   ar
     6    27     1    1
     7     1     2   ar
     8     2     3   ar
     9     3     4   ar
    10     4     5   ar
    11     5     6    1
    12     6     7    1
    13     7     8    1
    14     8     9   am
    15     9    10    2
    16     9    13    1
    17    13    14   ar
    18    14    15   ar
    19    15    16   ar
    20    16    19    1
    21    19    20   ar
    22    20    21   ar
    23    21    22   ar
    24    22    23   ar
    25    16    17   ar
    26    17    18   ar
    27     8    11    1
    28    11    12    1
    29    27    28   ar
    30    28    24   ar
    31     5     1   ar
    32    18    13   ar
    33    11     4    1
    34    23    19   ar
