@<TRIPOS>MOLECULE
*****
 34 37 0 0 0
SMALL
GASTEIGER

@<TRIPOS>ATOM
      1 C         143.0703  139.5207  165.5250 C.ar    1  UNL1        0.0000
      2 C         144.1808  140.3316  164.9257 C.ar    1  UNL1       -0.0003
      3 C         144.5151  140.1858  163.4707 C.ar    1  UNL1       -0.0042
      4 C         143.7388  139.2291  162.6150 C.ar    1  UNL1       -0.0194
      5 C         142.6283  138.4182  163.2143 C.ar    1  UNL1       -0.0042
      6 C         142.2941  138.5640  164.6694 C.ar    1  UNL1       -0.0003
      7 C         143.2236  137.6841  170.3834 C.3     1  UNL1        0.0343
      8 C         142.8127  138.7482  169.4092 C.ar    1  UNL1        0.0143
      9 C         143.1469  138.6024  167.9543 C.ar    1  UNL1       -0.0011
     10 C         142.7361  139.6665  166.9801 C.ar    1  UNL1        0.0013
     11 C         141.9910  140.8763  167.4609 C.ar    1  UNL1        0.0204
     12 C         141.6568  141.0220  168.9159 C.ar    1  UNL1        0.0997
     13 C         142.0677  139.9579  169.8901 C.ar    1  UNL1        0.1620
     14 O         141.6020  140.3735  171.2541 O.2     1  UNL1       -0.4071
     15 C         140.9033  141.6943  171.1229 C.ar    1  UNL1        0.4220
     16 O         140.2802  142.4770  172.2406 O.2     1  UNL1       -0.2226
     17 N         140.9372  142.0951  169.6779 N.ar    1  UNL1       -0.2601
     18 C         140.3539  143.3489  169.0967 C.3     1  UNL1        0.1369
     19 C         144.0731  139.0834  161.1600 C.3     1  UNL1        0.0616
     20 C         143.3547  139.9143  160.1386 C.3     1  UNL1        0.1684
     21 N         142.3435  140.9321  160.5763 N.am    1  UNL1       -0.2916
     22 C         142.7821  142.3240  160.9230 C.2     1  UNL1        0.2518
     23 O         144.2318  142.6982  160.8321 O.2     1  UNL1       -0.2724
     24 H         141.3920  140.6866  160.6360 H       1  UNL1        0.1504
     25 C         141.7708  143.3418  161.3608 C.3     1  UNL1        0.2064
     26 C         141.6791  144.5750  160.5117 C.3     1  UNL1        0.1080
     27 N         140.7790  145.7628  160.6818 N.3     1  UNL1       -0.2949
     28 C         139.7483  146.0107  161.7430 C.3     1  UNL1        0.0712
     29 C         139.3631  145.1322  162.8961 C.3     1  UNL1        0.0491
     30 C         139.9135  143.7887  163.2729 C.3     1  UNL1        0.1442
     31 O         140.9851  142.9918  162.5896 O.3     1  UNL1       -0.3456
     32 H         140.2613  145.8188  159.8048 H       1  UNL1        0.1233
     33 C         143.6475  139.7275  158.6793 C.1     1  UNL1        0.0927
     34 N         143.9403  139.5406  157.2201 N.1     1  UNL1       -0.1942
@<TRIPOS>BOND
     1     7     8    1
     2     8     9   ar
     3     9    10   ar
     4    10     1    1
     5     1     2   ar
     6     2     3   ar
     7     3     4   ar
     8     4    19    1
     9    20    19    1
    10    20    33    1
    11    33    34    3
    12    20    21    1
    13    21    22   am
    14    22    23    2
    15    25    22    1
    16    25    26    1
    17    26    27    1
    18    27    28    1
    19    28    29    1
    20    29    30    1
    21    30    31    1
    22     4     5   ar
    23     5     6   ar
    24    10    11   ar
    25    11    12   ar
    26    12    13   ar
    27    13    14   ar
    28    14    15   ar
    29    15    16    2
    30    15    17   ar
    31    17    18    1
    32    13     8   ar
    33     6     1   ar
    34    17    12   ar
    35    31    25    1
    36    21    24    1
    37    27    32    1
@<TRIPOS>MOLECULE
*****
 34 37 0 0 0
SMALL
GASTEIGER

@<TRIPOS>ATOM
      1 C         141.7568  139.4215  164.2134 C.ar    1  UNL1        0.0000
      2 C         142.3133  140.6464  163.5501 C.ar    1  UNL1       -0.0003
      3 C         142.9834  140.5361  162.2126 C.ar    1  UNL1       -0.0042
      4 C         143.0970  139.2009  161.5385 C.ar    1  UNL1       -0.0194
      5 C         142.5405  137.9760  162.2018 C.ar    1  UNL1       -0.0042
      6 C         141.8704  138.0864  163.5393 C.ar    1  UNL1       -0.0003
      7 C         137.5794  138.7269  167.2246 C.3     1  UNL1        0.0343
      8 C         138.9979  139.1845  167.0564 C.ar    1  UNL1        0.0143
      9 C         139.6681  139.0742  165.7190 C.ar    1  UNL1       -0.0011
     10 C         141.0866  139.5318  165.5509 C.ar    1  UNL1        0.0013
     11 C         141.8350  140.0998  166.7202 C.ar    1  UNL1        0.0204
     12 C         141.1649  140.2101  168.0576 C.ar    1  UNL1        0.0997
     13 C         139.7464  139.7525  168.2257 C.ar    1  UNL1        0.1620
     14 O         139.3510  139.9835  169.6541 O.2     1  UNL1       -0.4071
     15 C         140.5252  140.5839  170.3688 C.ar    1  UNL1        0.4220
     16 O         140.5704  140.9755  171.8161 O.2     1  UNL1       -0.2226
     17 N         141.6462  140.7240  169.3821 N.ar    1  UNL1       -0.2601
     18 C         143.0093  141.2802  169.6694 C.3     1  UNL1        0.1369
     19 C         143.7671  139.0906  160.2011 C.3     1  UNL1        0.0616
     20 C         142.9461  138.8556  158.9679 C.3     1  UNL1        0.1684
     21 N         142.6265  137.4553  158.5352 N.am    1  UNL1       -0.2916
     22 C         143.0721  136.9662  157.1891 C.2     1  UNL1        0.2518
     23 O         143.8373  137.8772  156.2756 O.2     1  UNL1       -0.2724
     24 H         142.1243  136.8574  159.1348 H       1  UNL1        0.1504
     25 C         142.7526  135.5659  156.7564 C.3     1  UNL1        0.2064
     26 C         143.2880  134.4749  157.6356 C.3     1  UNL1        0.1080
     27 N         143.1429  132.9903  157.4774 N.3     1  UNL1       -0.2949
     28 C         142.4266  132.2301  156.4008 C.3     1  UNL1        0.0712
     29 C         141.6785  132.7667  155.2166 C.3     1  UNL1        0.0491
     30 C         141.4619  134.1960  154.8165 C.3     1  UNL1        0.1442
     31 O         141.9399  135.4419  155.5018 O.3     1  UNL1       -0.3456
     32 H         142.7016  132.6828  158.3441 H       1  UNL1        0.1233
     33 C         142.4446  140.0207  158.1674 C.1     1  UNL1        0.0927
     34 N         141.9430  141.1860  157.3669 N.1     1  UNL1       -0.1942
@<TRIPOS>BOND
     1     7     8    1
     2     8     9   ar
     3     9    10   ar
     4    10     1    1
     5     1     2   ar
     6     2     3   ar
     7     3     4   ar
     8     4    19    1
     9    20    19    1
    10    20    33    1
    11    33    34    3
    12    20    21    1
    13    21    22   am
    14    22    23    2
    15    25    22    1
    16    25    26    1
    17    26    27    1
    18    27    28    1
    19    28    29    1
    20    29    30    1
    21    30    31    1
    22     4     5   ar
    23     5     6   ar
    24    10    11   ar
    25    11    12   ar
    26    12    13   ar
    27    13    14   ar
    28    14    15   ar
    29    15    16    2
    30    15    17   ar
    31    17    18    1
    32    13     8   ar
    33     6     1   ar
    34    17    12   ar
    35    31    25    1
    36    21    24    1
    37    27    32    1
@<TRIPOS>MOLECULE
*****
 34 37 0 0 0
SMALL
GASTEIGER

@<TRIPOS>ATOM
      1 C         139.9971  143.0565  164.4193 C.ar    1  UNL1        0.0000
      2 C         138.7727  143.4564  163.6507 C.ar    1  UNL1       -0.0003
      3 C         138.9032  144.3050  162.4207 C.ar    1  UNL1       -0.0042
      4 C         140.2581  144.7538  161.9594 C.ar    1  UNL1       -0.0194
      5 C         141.4826  144.3539  162.7281 C.ar    1  UNL1       -0.0042
      6 C         141.3520  143.5052  163.9581 C.ar    1  UNL1       -0.0003
      7 C         138.2752  138.7422  166.7478 C.3     1  UNL1        0.0343
      8 C         139.0056  140.0507  166.8135 C.ar    1  UNL1        0.0143
      9 C         139.1362  140.8993  165.5836 C.ar    1  UNL1       -0.0011
     10 C         139.8666  142.2079  165.6493 C.ar    1  UNL1        0.0013
     11 C         140.4664  142.6677  166.9449 C.ar    1  UNL1        0.0204
     12 C         140.3358  141.8191  168.1748 C.ar    1  UNL1        0.0997
     13 C         139.6054  140.5106  168.1091 C.ar    1  UNL1        0.1620
     14 O         139.6374  139.8928  169.4756 O.2     1  UNL1       -0.4071
     15 C         140.3876  140.8194  170.3859 C.ar    1  UNL1        0.4220
     16 O         140.6585  140.5949  171.8440 O.2     1  UNL1       -0.2226
     17 N         140.8192  142.0099  169.5819 N.ar    1  UNL1       -0.2601
     18 C         141.5976  143.1850  170.0950 C.3     1  UNL1        0.1369
     19 C         140.3886  145.6024  160.7295 C.3     1  UNL1        0.0616
     20 C         140.3331  144.9681  159.3713 C.3     1  UNL1        0.1684
     21 N         140.4685  143.4808  159.2320 N.am    1  UNL1       -0.2916
     22 C         141.8299  142.8530  159.1822 C.2     1  UNL1        0.2518
     23 O         143.0559  143.7126  159.2717 O.2     1  UNL1       -0.2724
     24 H         139.6638  142.9166  159.1732 H       1  UNL1        0.1504
     25 C         141.9652  141.3656  159.0429 C.3     1  UNL1        0.2064
     26 C         143.2953  140.7936  159.4351 C.3     1  UNL1        0.1080
     27 N         143.7413  139.3616  159.4110 N.3     1  UNL1       -0.2949
     28 C         142.9674  138.1480  158.9889 C.3     1  UNL1        0.0712
     29 C         141.5564  138.0666  158.4866 C.3     1  UNL1        0.0491
     30 C         140.5707  139.1787  158.2823 C.3     1  UNL1        0.1442
     31 O         140.7527  140.6470  158.5298 O.3     1  UNL1       -0.3456
     32 H         144.0208  139.1649  160.3721 H       1  UNL1        0.1233
     33 C         140.1421  145.8212  158.1524 C.1     1  UNL1        0.0927
     34 N         139.9511  146.6744  156.9335 N.1     1  UNL1       -0.1942
@<TRIPOS>BOND
     1     7     8    1
     2     8     9   ar
     3     9    10   ar
     4    10     1    1
     5     1     2   ar
     6     2     3   ar
     7     3     4   ar
     8     4    19    1
     9    20    19    1
    10    20    33    1
    11    33    34    3
    12    20    21    1
    13    21    22   am
    14    22    23    2
    15    25    22    1
    16    25    26    1
    17    26    27    1
    18    27    28    1
    19    28    29    1
    20    29    30    1
    21    30    31    1
    22     4     5   ar
    23     5     6   ar
    24    10    11   ar
    25    11    12   ar
    26    12    13   ar
    27    13    14   ar
    28    14    15   ar
    29    15    16    2
    30    15    17   ar
    31    17    18    1
    32    13     8   ar
    33     6     1   ar
    34    17    12   ar
    35    31    25    1
    36    21    24    1
    37    27    32    1
@<TRIPOS>MOLECULE
*****
 34 37 0 0 0
SMALL
GASTEIGER

@<TRIPOS>ATOM
      1 C         141.4677  138.3821  160.1084 C.ar    1  UNL1        0.0000
      2 C         139.9744  138.5194  160.0733 C.ar    1  UNL1       -0.0003
      3 C         139.1704  138.2865  161.3180 C.ar    1  UNL1       -0.0042
      4 C         139.8596  137.9162  162.5978 C.ar    1  UNL1       -0.0194
      5 C         141.3529  137.7789  162.6329 C.ar    1  UNL1       -0.0042
      6 C         142.1569  138.0118  161.3881 C.ar    1  UNL1       -0.0003
      7 C         142.9843  136.8540  155.3792 C.3     1  UNL1        0.0343
      8 C         143.0300  137.8509  156.4991 C.ar    1  UNL1        0.0143
      9 C         142.2260  137.6181  157.7438 C.ar    1  UNL1       -0.0011
     10 C         142.2717  138.6150  158.8636 C.ar    1  UNL1        0.0013
     11 C         143.1214  139.8448  158.7388 C.ar    1  UNL1        0.0204
     12 C         143.9254  140.0776  157.4941 C.ar    1  UNL1        0.0997
     13 C         143.8797  139.0807  156.3742 C.ar    1  UNL1        0.1620
     14 O         144.7736  139.5758  155.2761 O.2     1  UNL1       -0.4071
     15 C         145.3718  140.8787  155.7173 C.ar    1  UNL1        0.4220
     16 O         146.3266  141.7232  154.9266 O.2     1  UNL1       -0.2226
     17 N         144.8476  141.1888  157.0881 N.ar    1  UNL1       -0.2601
     18 C         145.1860  142.3979  157.9088 C.3     1  UNL1        0.1369
     19 C         139.0556  137.6833  163.8425 C.3     1  UNL1        0.0616
     20 C         138.8574  138.7977  164.8268 C.3     1  UNL1        0.1684
     21 N         139.4234  140.1577  164.5441 N.am    1  UNL1       -0.2916
     22 C         138.6483  141.1340  163.7098 C.2     1  UNL1        0.2518
     23 O         137.3072  140.7503  163.1582 O.2     1  UNL1       -0.2724
     24 H         140.3036  140.4095  164.9060 H       1  UNL1        0.1504
     25 C         139.2143  142.4940  163.4270 C.3     1  UNL1        0.2064
     26 C         138.3186  143.4265  162.6666 C.3     1  UNL1        0.1080
     27 N         138.5885  144.8371  162.2334 N.3     1  UNL1       -0.2949
     28 C         139.8208  145.6634  162.4537 C.3     1  UNL1        0.0712
     29 C         141.0876  145.2834  163.1614 C.3     1  UNL1        0.0491
     30 C         141.4349  143.9831  163.8238 C.3     1  UNL1        0.1442
     31 O         140.6012  142.7417  163.9420 O.3     1  UNL1       -0.3456
     32 H         137.8366  145.3822  162.6552 H       1  UNL1        0.1233
     33 C         138.0933  138.5520  166.0940 C.1     1  UNL1        0.0927
     34 N         137.3291  138.3063  167.3612 N.1     1  UNL1       -0.1942
@<TRIPOS>BOND
     1     7     8    1
     2     8     9   ar
     3     9    10   ar
     4    10     1    1
     5     1     2   ar
     6     2     3   ar
     7     3     4   ar
     8     4    19    1
     9    20    19    1
    10    20    33    1
    11    33    34    3
    12    20    21    1
    13    21    22   am
    14    22    23    2
    15    25    22    1
    16    25    26    1
    17    26    27    1
    18    27    28    1
    19    28    29    1
    20    29    30    1
    21    30    31    1
    22     4     5   ar
    23     5     6   ar
    24    10    11   ar
    25    11    12   ar
    26    12    13   ar
    27    13    14   ar
    28    14    15   ar
    29    15    16    2
    30    15    17   ar
    31    17    18    1
    32    13     8   ar
    33     6     1   ar
    34    17    12   ar
    35    31    25    1
    36    21    24    1
    37    27    32    1
@<TRIPOS>MOLECULE
*****
 34 37 0 0 0
SMALL
GASTEIGER

@<TRIPOS>ATOM
      1 C         139.1702  140.5202  163.3747 C.ar    1  UNL1        0.0000
      2 C         140.5151  140.7062  162.7371 C.ar    1  UNL1       -0.0003
      3 C         140.6156  140.9942  161.2685 C.ar    1  UNL1       -0.0042
      4 C         139.3710  141.0962  160.4373 C.ar    1  UNL1       -0.0194
      5 C         138.0260  140.9101  161.0749 C.ar    1  UNL1       -0.0042
      6 C         137.9256  140.6222  162.5436 C.ar    1  UNL1       -0.0003
      7 C         137.1915  137.7341  167.2891 C.3     1  UNL1        0.0343
      8 C         138.0804  138.8392  166.8006 C.ar    1  UNL1        0.0143
      9 C         138.1808  139.1272  165.3319 C.ar    1  UNL1       -0.0011
     10 C         139.0698  140.2322  164.8434 C.ar    1  UNL1        0.0013
     11 C         139.8582  141.0493  165.8235 C.ar    1  UNL1        0.0204
     12 C         139.7578  140.7613  167.2921 C.ar    1  UNL1        0.0997
     13 C         138.8689  139.6563  167.7807 C.ar    1  UNL1        0.1620
     14 O         138.9721  139.6053  169.2763 O.2     1  UNL1       -0.4071
     15 C         139.9247  140.6789  169.7121 C.ar    1  UNL1        0.4220
     16 O         140.3220  140.9843  171.1259 O.2     1  UNL1       -0.2226
     17 N         140.4103  141.3933  168.4858 N.ar    1  UNL1       -0.2601
     18 C         141.3785  142.5387  168.4581 C.3     1  UNL1        0.1369
     19 C         139.4714  141.3841  158.9687 C.3     1  UNL1        0.0616
     20 C         138.9478  140.3925  157.9724 C.3     1  UNL1        0.1684
     21 N         137.4692  140.1912  157.8207 N.am    1  UNL1       -0.2916
     22 C         136.7382  140.8324  156.6786 C.2     1  UNL1        0.2518
     23 O         137.4859  141.6750  155.6882 O.2     1  UNL1       -0.2724
     24 H         136.9785  139.6381  158.4708 H       1  UNL1        0.1504
     25 C         135.2595  140.6310  156.5269 C.3     1  UNL1        0.2064
     26 C         134.6310  141.2945  155.3375 C.3     1  UNL1        0.1080
     27 N         133.1926  141.2836  154.9121 N.3     1  UNL1       -0.2949
     28 C         132.0275  140.6066  155.5711 C.3     1  UNL1        0.0712
     29 C         132.0131  139.7733  156.8182 C.3     1  UNL1        0.0491
     30 C         133.1601  139.4111  157.7143 C.3     1  UNL1        0.1442
     31 O         134.6050  139.7928  157.5847 O.3     1  UNL1       -0.3456
     32 H         133.2087  140.9016  153.9664 H       1  UNL1        0.1233
     33 C         139.9029  139.6022  157.1279 C.1     1  UNL1        0.0927
     34 N         140.8579  138.8119  156.2833 N.1     1  UNL1       -0.1942
@<TRIPOS>BOND
     1     7     8    1
     2     8     9   ar
     3     9    10   ar
     4    10     1    1
     5     1     2   ar
     6     2     3   ar
     7     3     4   ar
     8     4    19    1
     9    20    19    1
    10    20    33    1
    11    33    34    3
    12    20    21    1
    13    21    22   am
    14    22    23    2
    15    25    22    1
    16    25    26    1
    17    26    27    1
    18    27    28    1
    19    28    29    1
    20    29    30    1
    21    30    31    1
    22     4     5   ar
    23     5     6   ar
    24    10    11   ar
    25    11    12   ar
    26    12    13   ar
    27    13    14   ar
    28    14    15   ar
    29    15    16    2
    30    15    17   ar
    31    17    18    1
    32    13     8   ar
    33     6     1   ar
    34    17    12   ar
    35    31    25    1
    36    21    24    1
    37    27    32    1
@<TRIPOS>MOLECULE
*****
 34 37 0 0 0
SMALL
GASTEIGER

@<TRIPOS>ATOM
      1 C         142.8451  138.5805  161.9165 C.ar    1  UNL1        0.0000
      2 C         144.0196  139.2530  162.5633 C.ar    1  UNL1       -0.0003
      3 C         144.1721  139.2248  164.0552 C.ar    1  UNL1       -0.0042
      4 C         143.1500  138.5240  164.9005 C.ar    1  UNL1       -0.0194
      5 C         141.9755  137.8515  164.2537 C.ar    1  UNL1       -0.0042
      6 C         141.8231  137.8798  162.7617 C.ar    1  UNL1       -0.0003
      7 C         141.8008  141.1940  157.5485 C.3     1  UNL1        0.0343
      8 C         142.1705  139.9155  158.2406 C.ar    1  UNL1        0.0143
      9 C         142.3230  139.8872  159.7325 C.ar    1  UNL1       -0.0011
     10 C         142.6927  138.6088  160.4245 C.ar    1  UNL1        0.0013
     11 C         142.9101  137.3587  159.6246 C.ar    1  UNL1        0.0204
     12 C         142.7576  137.3870  158.1327 C.ar    1  UNL1        0.0997
     13 C         142.3879  138.6654  157.4406 C.ar    1  UNL1        0.1620
     14 O         142.3092  138.3895  155.9683 O.2     1  UNL1       -0.4071
     15 C         142.6304  136.9406  155.7504 C.ar    1  UNL1        0.4220
     16 O         142.6679  136.2352  154.4271 O.2     1  UNL1       -0.2226
     17 N         142.9075  136.3210  157.0880 N.ar    1  UNL1       -0.2601
     18 C         143.2708  134.8872  157.3373 C.3     1  UNL1        0.1369
     19 C         143.3025  138.4958  166.3924 C.3     1  UNL1        0.0616
     20 C         142.6398  139.5458  167.2341 C.3     1  UNL1        0.1684
     21 N         141.8869  140.6662  166.5801 N.am    1  UNL1       -0.2916
     22 C         140.4147  140.5324  166.3255 C.2     1  UNL1        0.2518
     23 O         139.6955  139.2781  166.7249 O.2     1  UNL1       -0.2724
     24 H         142.3589  141.4894  166.3180 H       1  UNL1        0.1504
     25 C         139.6618  141.6529  165.6715 C.3     1  UNL1        0.2064
     26 C         138.3924  141.2637  164.9735 C.3     1  UNL1        0.1080
     27 N         137.4255  142.1399  164.2336 N.3     1  UNL1       -0.2949
     28 C         137.4892  143.6216  164.0090 C.3     1  UNL1        0.0712
     29 C         138.5355  144.5931  164.4688 C.3     1  UNL1        0.0491
     30 C         139.7765  144.3228  165.2668 C.3     1  UNL1        0.1442
     31 O         140.2778  143.0143  165.8021 O.3     1  UNL1       -0.3456
     32 H         136.5334  141.9911  164.7051 H       1  UNL1        0.1233
     33 C         142.7300  139.4753  168.7297 C.1     1  UNL1        0.0927
     34 N         142.8202  139.4049  170.2253 N.1     1  UNL1       -0.1942
@<TRIPOS>BOND
     1     7     8    1
     2     8     9   ar
     3     9    10   ar
     4    10     1    1
     5     1     2   ar
     6     2     3   ar
     7     3     4   ar
     8     4    19    1
     9    20    19    1
    10    20    33    1
    11    33    34    3
    12    20    21    1
    13    21    22   am
    14    22    23    2
    15    25    22    1
    16    25    26    1
    17    26    27    1
    18    27    28    1
    19    28    29    1
    20    29    30    1
    21    30    31    1
    22     4     5   ar
    23     5     6   ar
    24    10    11   ar
    25    11    12   ar
    26    12    13   ar
    27    13    14   ar
    28    14    15   ar
    29    15    16    2
    30    15    17   ar
    31    17    18    1
    32    13     8   ar
    33     6     1   ar
    34    17    12   ar
    35    31    25    1
    36    21    24    1
    37    27    32    1
@<TRIPOS>MOLECULE
*****
 34 37 0 0 0
SMALL
GASTEIGER

@<TRIPOS>ATOM
      1 C         143.1643  138.8584  161.6398 C.ar    1  UNL1        0.0000
      2 C         144.2285  139.5298  162.4563 C.ar    1  UNL1       -0.0003
      3 C         144.2191  139.4028  163.9508 C.ar    1  UNL1       -0.0042
      4 C         143.1454  138.6043  164.6289 C.ar    1  UNL1       -0.0194
      5 C         142.0812  137.9329  163.8124 C.ar    1  UNL1       -0.0042
      6 C         142.0907  138.0600  162.3178 C.ar    1  UNL1       -0.0003
      7 C         141.7098  137.1148  156.9660 C.3     1  UNL1        0.0343
      8 C         142.4465  138.1137  157.8083 C.ar    1  UNL1        0.0143
      9 C         142.4371  137.9866  159.3028 C.ar    1  UNL1       -0.0011
     10 C         143.1738  138.9855  160.1451 C.ar    1  UNL1        0.0013
     11 C         143.9200  140.1114  159.4929 C.ar    1  UNL1        0.0204
     12 C         143.9294  140.2385  157.9983 C.ar    1  UNL1        0.0997
     13 C         143.1927  139.2396  157.1560 C.ar    1  UNL1        0.1620
     14 O         143.3799  139.6189  155.7169 O.2     1  UNL1       -0.4071
     15 C         144.2324  140.8523  155.6698 C.ar    1  UNL1        0.4220
     16 O         144.6687  141.5757  154.4303 O.2     1  UNL1       -0.2226
     17 N         144.5720  141.2351  157.0797 N.ar    1  UNL1       -0.2601
     18 C         145.4075  142.4087  157.4978 C.3     1  UNL1        0.1369
     19 C         143.1360  138.4772  166.1235 C.3     1  UNL1        0.0616
     20 C         142.3680  139.4615  166.9550 C.3     1  UNL1        0.1684
     21 N         141.3351  140.3401  166.3140 N.am    1  UNL1       -0.2916
     22 C         141.7134  141.7052  165.8205 C.2     1  UNL1        0.2518
     23 O         143.1246  142.1916  165.9681 O.2     1  UNL1       -0.2724
     24 H         140.4088  140.0209  166.2171 H       1  UNL1        0.1504
     25 C         140.6803  142.5838  165.1794 C.3     1  UNL1        0.2064
     26 C         141.1788  143.8971  164.6534 C.3     1  UNL1        0.1080
     27 N         140.4056  144.9840  163.9671 N.3     1  UNL1       -0.2949
     28 C         138.9429  145.0259  163.6375 C.3     1  UNL1        0.0712
     29 C         137.8921  143.9914  163.9127 C.3     1  UNL1        0.0491
     30 C         138.0446  142.6594  164.5855 C.3     1  UNL1        0.1442
     31 O         139.2855  142.0330  165.1493 O.3     1  UNL1       -0.3456
     32 H         140.8735  145.1022  163.0685 H       1  UNL1        0.1233
     33 C         142.6329  139.5670  168.4276 C.1     1  UNL1        0.0927
     34 N         142.8978  139.6726  169.9003 N.1     1  UNL1       -0.1942
@<TRIPOS>BOND
     1     7     8    1
     2     8     9   ar
     3     9    10   ar
     4    10     1    1
     5     1     2   ar
     6     2     3   ar
     7     3     4   ar
     8     4    19    1
     9    20    19    1
    10    20    33    1
    11    33    34    3
    12    20    21    1
    13    21    22   am
    14    22    23    2
    15    25    22    1
    16    25    26    1
    17    26    27    1
    18    27    28    1
    19    28    29    1
    20    29    30    1
    21    30    31    1
    22     4     5   ar
    23     5     6   ar
    24    10    11   ar
    25    11    12   ar
    26    12    13   ar
    27    13    14   ar
    28    14    15   ar
    29    15    16    2
    30    15    17   ar
    31    17    18    1
    32    13     8   ar
    33     6     1   ar
    34    17    12   ar
    35    31    25    1
    36    21    24    1
    37    27    32    1
@<TRIPOS>MOLECULE
*****
 34 37 0 0 0
SMALL
GASTEIGER

@<TRIPOS>ATOM
      1 C         142.8356  141.8308  165.1943 C.ar    1  UNL1        0.0000
      2 C         143.5695  143.0951  164.8583 C.ar    1  UNL1       -0.0003
      3 C         144.2605  143.2320  163.5341 C.ar    1  UNL1       -0.0042
      4 C         144.2177  142.1044  162.5456 C.ar    1  UNL1       -0.0194
      5 C         143.4838  140.8401  162.8816 C.ar    1  UNL1       -0.0042
      6 C         142.7928  140.7033  164.2059 C.ar    1  UNL1       -0.0003
      7 C         142.5304  142.9857  170.2513 C.3     1  UNL1        0.0343
      8 C         141.9920  142.2714  169.0471 C.ar    1  UNL1        0.0143
      9 C         142.6830  142.4082  167.7228 C.ar    1  UNL1       -0.0011
     10 C         142.1446  141.6940  166.5186 C.ar    1  UNL1        0.0013
     11 C         140.9153  140.8430  166.6388 C.ar    1  UNL1        0.0204
     12 C         140.2243  140.7062  167.9631 C.ar    1  UNL1        0.0997
     13 C         140.7627  141.4205  169.1672 C.ar    1  UNL1        0.1620
     14 O         139.8746  141.0988  170.3325 O.2     1  UNL1       -0.4071
     15 C         138.7873  140.1857  169.8485 C.ar    1  UNL1        0.4220
     16 O         137.6786  139.6155  170.6825 O.2     1  UNL1       -0.2226
     17 N         139.0035  139.9432  168.3841 N.ar    1  UNL1       -0.2601
     18 C         138.1488  139.0877  167.4966 C.3     1  UNL1        0.1369
     19 C         144.9087  142.2413  161.2214 C.3     1  UNL1        0.0616
     20 C         144.1144  142.5651  159.9909 C.3     1  UNL1        0.1684
     21 N         144.7871  142.5960  158.6505 N.am    1  UNL1       -0.2916
     22 C         144.8332  141.3574  157.8058 C.2     1  UNL1        0.2518
     23 O         144.2066  140.0878  158.3014 O.2     1  UNL1       -0.2724
     24 H         145.1983  143.4293  158.3252 H       1  UNL1        0.1504
     25 C         145.5059  141.3883  156.4654 C.3     1  UNL1        0.2064
     26 C         146.6010  142.4015  156.3101 C.3     1  UNL1        0.1080
     27 N         147.4553  142.6787  155.1086 N.3     1  UNL1       -0.2949
     28 C         147.4254  142.0110  153.7658 C.3     1  UNL1        0.0712
     29 C         146.5339  140.9013  153.2927 C.3     1  UNL1        0.0491
     30 C         145.4521  140.1852  154.0456 C.3     1  UNL1        0.1442
     31 O         144.9946  140.4020  155.4577 O.3     1  UNL1       -0.3456
     32 H         148.4112  142.5460  155.4387 H       1  UNL1        0.1233
     33 C         142.6474  142.8582  160.1006 C.1     1  UNL1        0.0927
     34 N         141.1804  143.1512  160.2104 N.1     1  UNL1       -0.1942
@<TRIPOS>BOND
     1     7     8    1
     2     8     9   ar
     3     9    10   ar
     4    10     1    1
     5     1     2   ar
     6     2     3   ar
     7     3     4   ar
     8     4    19    1
     9    20    19    1
    10    20    33    1
    11    33    34    3
    12    20    21    1
    13    21    22   am
    14    22    23    2
    15    25    22    1
    16    25    26    1
    17    26    27    1
    18    27    28    1
    19    28    29    1
    20    29    30    1
    21    30    31    1
    22     4     5   ar
    23     5     6   ar
    24    10    11   ar
    25    11    12   ar
    26    12    13   ar
    27    13    14   ar
    28    14    15   ar
    29    15    16    2
    30    15    17   ar
    31    17    18    1
    32    13     8   ar
    33     6     1   ar
    34    17    12   ar
    35    31    25    1
    36    21    24    1
    37    27    32    1
@<TRIPOS>MOLECULE
*****
 34 37 0 0 0
SMALL
GASTEIGER

@<TRIPOS>ATOM
      1 C         141.5021  138.3764  159.5481 C.ar    1  UNL1        0.0000
      2 C         140.0248  138.6084  159.4302 C.ar    1  UNL1       -0.0003
      3 C         139.1475  138.4864  160.6407 C.ar    1  UNL1       -0.0042
      4 C         139.7474  138.1325  161.9692 C.ar    1  UNL1       -0.0194
      5 C         141.2247  137.9005  162.0872 C.ar    1  UNL1       -0.0042
      6 C         142.1020  138.0225  160.8765 C.ar    1  UNL1       -0.0003
      7 C         143.3029  136.4269  155.0808 C.3     1  UNL1        0.0343
      8 C         143.2798  137.5236  156.1039 C.ar    1  UNL1        0.0143
      9 C         142.4025  137.4017  157.3145 C.ar    1  UNL1       -0.0011
     10 C         142.3794  138.4984  158.3375 C.ar    1  UNL1        0.0013
     11 C         143.2336  139.7171  158.1500 C.ar    1  UNL1        0.0204
     12 C         144.1108  139.8390  156.9394 C.ar    1  UNL1        0.0997
     13 C         144.1339  138.7423  155.9164 C.ar    1  UNL1        0.1620
     14 O         145.0918  139.1395  154.8326 O.2     1  UNL1       -0.4071
     15 C         145.6607  140.4818  155.1857 C.ar    1  UNL1        0.4220
     16 O         146.6604  141.2558  154.3785 O.2     1  UNL1       -0.2226
     17 N         145.0544  140.9141  156.4879 N.ar    1  UNL1       -0.2601
     18 C         145.3413  142.1963  157.2114 C.3     1  UNL1        0.1369
     19 C         138.8701  138.0105  163.1798 C.3     1  UNL1        0.0616
     20 C         138.5635  139.2223  164.0090 C.3     1  UNL1        0.1684
     21 N         138.9807  139.2709  165.4489 N.am    1  UNL1       -0.2916
     22 C         140.3097  139.8556  165.8254 C.2     1  UNL1        0.2518
     23 O         141.2216  140.3917  164.7619 O.2     1  UNL1       -0.2724
     24 H         138.3822  138.9190  166.1470 H       1  UNL1        0.1504
     25 C         140.7269  139.9041  167.2655 C.3     1  UNL1        0.2064
     26 C         142.1729  139.6093  167.5344 C.3     1  UNL1        0.1080
     27 N         142.8920  139.5786  168.8505 N.3     1  UNL1       -0.2949
     28 C         142.3428  139.8352  170.2225 C.3     1  UNL1        0.0712
     29 C         140.9389  140.1858  170.6174 C.3     1  UNL1        0.0491
     30 C         139.7374  140.3665  169.7378 C.3     1  UNL1        0.1442
     31 O         139.6430  140.2411  168.2460 O.3     1  UNL1       -0.3456
     32 H         143.6456  140.2580  168.7457 H       1  UNL1        0.1233
     33 C         137.8396  140.3854  163.3982 C.1     1  UNL1        0.0927
     34 N         137.1158  141.5486  162.7874 N.1     1  UNL1       -0.1942
@<TRIPOS>BOND
     1     7     8    1
     2     8     9   ar
     3     9    10   ar
     4    10     1    1
     5     1     2   ar
     6     2     3   ar
     7     3     4   ar
     8     4    19    1
     9    20    19    1
    10    20    33    1
    11    33    34    3
    12    20    21    1
    13    21    22   am
    14    22    23    2
    15    25    22    1
    16    25    26    1
    17    26    27    1
    18    27    28    1
    19    28    29    1
    20    29    30    1
    21    30    31    1
    22     4     5   ar
    23     5     6   ar
    24    10    11   ar
    25    11    12   ar
    26    12    13   ar
    27    13    14   ar
    28    14    15   ar
    29    15    16    2
    30    15    17   ar
    31    17    18    1
    32    13     8   ar
    33     6     1   ar
    34    17    12   ar
    35    31    25    1
    36    21    24    1
    37    27    32    1
