@<TRIPOS>MOLECULE
*****
 40 42 0 0 0
SMALL
GASTEIGER

@<TRIPOS>ATOM
      1 C         140.3616  142.4896  160.5334 C.3     1  UNL1        0.1518
      2 C         140.1124  142.4659  159.0545 C.3     1  UNL1        0.0310
      3 C         141.4344  142.6048  158.3594 C.3     1  UNL1        0.0237
      4 C         142.5006  142.7143  159.4088 C.3     1  UNL1        0.0939
      5 N         141.8376  142.6431  160.7524 N.am    1  UNL1       -0.2730
      6 C         142.5292  142.7131  162.0816 C.2     1  UNL1        0.2273
      7 O         141.7300  142.6279  163.3482 O.2     1  UNL1       -0.2748
      8 N         139.2389  141.1426  162.4505 N.am    1  UNL1       -0.2991
      9 C         139.3180  142.3792  161.6053 C.2     1  UNL1        0.2408
     10 O         138.3536  143.5055  161.8319 O.2     1  UNL1       -0.2733
     11 H         139.8719  140.4033  162.3017 H       1  UNL1        0.1498
     12 C         138.1954  141.0321  163.5223 C.3     1  UNL1        0.1164
     13 C         139.4107  140.1441  167.7630 C.ar    1  UNL1        0.1389
     14 C         138.4374  139.2464  167.0582 C.ar    1  UNL1        0.0366
     15 C         138.0323  139.5424  165.6446 C.ar    1  UNL1        0.0005
     16 C         138.6005  140.7361  164.9359 C.ar    1  UNL1       -0.0024
     17 C         139.5738  141.6337  165.6407 C.ar    1  UNL1        0.0005
     18 C         139.9789  141.3377  167.0543 C.ar    1  UNL1        0.0366
     19 O         139.8158  139.8480  169.1766 O.3     1  UNL1       -0.4736
     20 C         140.8339  140.7109  169.8614 C.3     1  UNL1        0.2017
     21 C         143.3208  141.4507  169.7265 C.3     1  UNL1        0.0041
     22 C         142.2904  140.3619  169.7789 C.3     1  UNL1        0.0456
     23 C         142.7164  138.9240  169.7486 C.3     1  UNL1        0.0041
     24 C         140.3955  141.9230  170.6288 C.2     1  UNL1        0.0900
     25 O         139.7916  143.0904  169.9060 O.co2   1  UNL1       -0.5455
     26 O         140.5609  141.9676  172.1190 O.co2   1  UNL1       -0.5455
     27 C         144.0197  142.8683  162.1444 C.3     1  UNL1        0.1010
     28 C         144.8852  141.6821  162.4507 C.3     1  UNL1        0.0644
     29 N         146.2284  141.8786  163.0889 N.3     1  UNL1       -0.3215
     30 H         146.3893  142.8740  163.2429 H       1  UNL1        0.1188
     31 H         146.9539  141.5078  162.4752 H       1  UNL1        0.1188
     32 C         144.4074  140.2995  162.1190 C.3     1  UNL1        0.0447
     33 C         143.6001  139.5251  163.1182 C.ar    1  UNL1        0.0088
     34 C         144.1701  139.2265  164.4732 C.ar    1  UNL1        0.0276
     35 C         143.3627  138.4521  165.4724 C.ar    1  UNL1        0.1400
     36 F         143.9326  138.1535  166.8274 F       1  UNL1       -0.2042
     37 C         141.9853  137.9762  165.1167 C.ar    1  UNL1        0.0319
     38 C         141.4154  138.2748  163.7617 C.ar    1  UNL1        0.0316
     39 C         142.2228  139.0492  162.7624 C.ar    1  UNL1        0.1363
     40 F         141.6528  139.3478  161.4074 F       1  UNL1       -0.2045
@<TRIPOS>UNITY_ATOM_ATTR
25 1
charge -1
@<TRIPOS>BOND
     1    21    22    1
     2    22    23    1
     3    22    20    1
     4    20    19    1
     5    19    13    1
     6    13    14   ar
     7    14    15   ar
     8    15    16   ar
     9    16    12    1
    10    12     8    1
    11     8     9   am
    12     9    10    2
    13     1     9    1
    14     1     2    1
    15     2     3    1
    16     3     4    1
    17     4     5    1
    18     5     6   am
    19     6     7    2
    20     6    27    1
    21    27    28    1
    22    28    29    1
    23    28    32    1
    24    32    33    1
    25    33    34   ar
    26    34    35   ar
    27    35    36    1
    28    35    37   ar
    29    37    38   ar
    30    38    39   ar
    31    39    40    1
    32    16    17   ar
    33    17    18   ar
    34    20    24    1
    35    24    25   ar
    36    24    26   ar
    37    18    13   ar
    38     5     1    1
    39    39    33   ar
    40     8    11    1
    41    29    30    1
    42    29    31    1
@<TRIPOS>MOLECULE
*****
 40 42 0 0 0
SMALL
GASTEIGER

@<TRIPOS>ATOM
      1 C         140.0959  142.3497  160.4797 C.3     1  UNL1        0.1518
      2 C         139.9755  142.0754  159.0099 C.3     1  UNL1        0.0310
      3 C         141.2660  142.4731  158.3568 C.3     1  UNL1        0.0237
      4 C         142.1840  142.9931  159.4231 C.3     1  UNL1        0.0939
      5 N         141.4608  142.9168  160.7351 N.am    1  UNL1       -0.2730
      6 C         142.0068  143.3344  162.0683 C.2     1  UNL1        0.2273
      7 O         141.1620  143.1988  163.3005 O.2     1  UNL1       -0.2748
      8 N         139.2339  141.0305  162.5453 N.am    1  UNL1       -0.2991
      9 C         139.0371  142.1005  161.5127 C.2     1  UNL1        0.2408
     10 O         137.7818  142.9215  161.5131 O.2     1  UNL1       -0.2733
     11 H         140.0579  140.4916  162.5450 H       1  UNL1        0.1498
     12 C         138.1752  140.7813  163.5783 C.3     1  UNL1        0.1164
     13 C         139.3364  140.1122  167.8741 C.ar    1  UNL1        0.1389
     14 C         139.8294  141.3264  167.1443 C.ar    1  UNL1        0.0366
     15 C         139.4424  141.5494  165.7123 C.ar    1  UNL1        0.0005
     16 C         138.5623  140.5583  165.0102 C.ar    1  UNL1       -0.0024
     17 C         138.0692  139.3441  165.7400 C.ar    1  UNL1        0.0005
     18 C         138.4563  139.1211  167.1720 C.ar    1  UNL1        0.0366
     19 O         139.7235  139.8892  169.3060 O.3     1  UNL1       -0.4736
     20 C         140.7917  140.7341  169.9345 C.3     1  UNL1        0.2017
     21 C         142.6101  138.8913  169.7168 C.3     1  UNL1        0.0041
     22 C         142.2332  140.3406  169.8034 C.3     1  UNL1        0.0456
     23 C         143.2978  141.3964  169.7590 C.3     1  UNL1        0.0041
     24 C         140.4184  141.9726  170.6941 C.2     1  UNL1        0.0900
     25 O         140.7068  142.0669  172.1631 O.co2   1  UNL1       -0.5455
     26 O         139.7567  143.1167  169.9847 O.co2   1  UNL1       -0.5455
     27 C         143.3973  143.8875  162.1695 C.3     1  UNL1        0.1010
     28 C         144.5512  142.9701  162.4471 C.3     1  UNL1        0.0644
     29 N         145.5069  142.6131  161.3475 N.3     1  UNL1       -0.3215
     30 H         145.2231  143.0792  160.4858 H       1  UNL1        0.1188
     31 H         145.5002  141.6030  161.2059 H       1  UNL1        0.1188
     32 C         144.7493  142.4098  163.8244 C.3     1  UNL1        0.0447
     33 C         143.9970  141.1842  164.2508 C.ar    1  UNL1        0.0088
     34 C         143.8081  140.0479  163.2899 C.ar    1  UNL1        0.0276
     35 C         143.0558  138.8223  163.7163 C.ar    1  UNL1        0.1400
     36 F         142.8669  137.6860  162.7554 F       1  UNL1       -0.2042
     37 C         142.4923  138.7328  165.1036 C.ar    1  UNL1        0.0319
     38 C         142.6811  139.8691  166.0644 C.ar    1  UNL1        0.0316
     39 C         143.4335  141.0948  165.6381 C.ar    1  UNL1        0.1363
     40 F         143.6223  142.2311  166.5989 F       1  UNL1       -0.2045
@<TRIPOS>UNITY_ATOM_ATTR
25 1
charge -1
@<TRIPOS>BOND
     1    21    22    1
     2    22    23    1
     3    22    20    1
     4    20    19    1
     5    19    13    1
     6    13    14   ar
     7    14    15   ar
     8    15    16   ar
     9    16    12    1
    10    12     8    1
    11     8     9   am
    12     9    10    2
    13     1     9    1
    14     1     2    1
    15     2     3    1
    16     3     4    1
    17     4     5    1
    18     5     6   am
    19     6     7    2
    20     6    27    1
    21    27    28    1
    22    28    29    1
    23    28    32    1
    24    32    33    1
    25    33    34   ar
    26    34    35   ar
    27    35    36    1
    28    35    37   ar
    29    37    38   ar
    30    38    39   ar
    31    39    40    1
    32    16    17   ar
    33    17    18   ar
    34    20    24    1
    35    24    25   ar
    36    24    26   ar
    37    18    13   ar
    38     5     1    1
    39    39    33   ar
    40     8    11    1
    41    29    30    1
    42    29    31    1
@<TRIPOS>MOLECULE
*****
 40 42 0 0 0
SMALL
GASTEIGER

@<TRIPOS>ATOM
      1 C         141.6053  138.9634  161.0810 C.3     1  UNL1        0.1518
      2 C         141.6003  138.6458  159.6150 C.3     1  UNL1        0.0310
      3 C         142.9166  139.0806  159.0420 C.3     1  UNL1        0.0237
      4 C         143.7351  139.6670  160.1539 C.3     1  UNL1        0.0939
      5 N         142.9246  139.5945  161.4140 N.am    1  UNL1       -0.2730
      6 C         143.3575  140.0698  162.7693 C.2     1  UNL1        0.2273
      7 O         142.4340  139.9307  163.9431 O.2     1  UNL1       -0.2748
      8 N         139.6273  139.8270  162.5274 N.am    1  UNL1       -0.2991
      9 C         140.4871  138.6966  162.0447 C.2     1  UNL1        0.2408
     10 O         140.2288  137.2995  162.5257 O.2     1  UNL1       -0.2733
     11 H         139.7969  140.7440  162.2117 H       1  UNL1        0.1498
     12 C         138.5092  139.5603  163.4910 C.3     1  UNL1        0.1164
     13 C         139.2232  139.9151  167.9199 C.ar    1  UNL1        0.1389
     14 C         138.3141  138.8462  167.3900 C.ar    1  UNL1        0.0366
     15 C         138.0761  138.7279  165.9137 C.ar    1  UNL1        0.0005
     16 C         138.7472  139.6786  164.9673 C.ar    1  UNL1       -0.0024
     17 C         139.6564  140.7475  165.4972 C.ar    1  UNL1        0.0005
     18 C         139.8944  140.8658  166.9734 C.ar    1  UNL1        0.0366
     19 O         139.4612  140.0334  169.3961 O.3     1  UNL1       -0.4736
     20 C         140.5919  140.8754  169.9084 C.3     1  UNL1        0.2017
     21 C         142.3812  138.9917  169.9334 C.3     1  UNL1        0.0041
     22 C         142.0098  140.4279  169.7103 C.3     1  UNL1        0.0456
     23 C         143.0564  141.4164  169.2892 C.3     1  UNL1        0.0041
     24 C         140.3047  142.1649  170.6189 C.2     1  UNL1        0.0900
     25 O         140.4045  142.2358  172.1140 O.co2   1  UNL1       -0.5455
     26 O         139.9179  143.3834  169.8345 O.co2   1  UNL1       -0.5455
     27 C         144.7139  140.6840  162.9508 C.3     1  UNL1        0.1010
     28 C         144.9227  142.1406  162.6599 C.3     1  UNL1        0.0644
     29 N         145.5541  142.5641  161.3669 N.3     1  UNL1       -0.3215
     30 H         145.7764  141.7386  160.8106 H       1  UNL1        0.1188
     31 H         146.4100  143.0840  161.5607 H       1  UNL1        0.1188
     32 C         144.5001  143.1737  163.6620 C.3     1  UNL1        0.0447
     33 C         143.1007  143.7132  163.6383 C.ar    1  UNL1        0.0088
     34 C         142.6290  144.5233  162.4673 C.ar    1  UNL1        0.0276
     35 C         141.2296  145.0628  162.4436 C.ar    1  UNL1        0.1400
     36 F         140.7578  145.8729  161.2726 F       1  UNL1       -0.2042
     37 C         140.3018  144.7922  163.5908 C.ar    1  UNL1        0.0319
     38 C         140.7736  143.9821  164.7618 C.ar    1  UNL1        0.0316
     39 C         142.1730  143.4426  164.7856 C.ar    1  UNL1        0.1363
     40 F         142.6448  142.6324  165.9565 F       1  UNL1       -0.2045
@<TRIPOS>UNITY_ATOM_ATTR
25 1
charge -1
@<TRIPOS>BOND
     1    21    22    1
     2    22    23    1
     3    22    20    1
     4    20    19    1
     5    19    13    1
     6    13    14   ar
     7    14    15   ar
     8    15    16   ar
     9    16    12    1
    10    12     8    1
    11     8     9   am
    12     9    10    2
    13     1     9    1
    14     1     2    1
    15     2     3    1
    16     3     4    1
    17     4     5    1
    18     5     6   am
    19     6     7    2
    20     6    27    1
    21    27    28    1
    22    28    29    1
    23    28    32    1
    24    32    33    1
    25    33    34   ar
    26    34    35   ar
    27    35    36    1
    28    35    37   ar
    29    37    38   ar
    30    38    39   ar
    31    39    40    1
    32    16    17   ar
    33    17    18   ar
    34    20    24    1
    35    24    25   ar
    36    24    26   ar
    37    18    13   ar
    38     5     1    1
    39    39    33   ar
    40     8    11    1
    41    29    30    1
    42    29    31    1
@<TRIPOS>MOLECULE
*****
 40 42 0 0 0
SMALL
GASTEIGER

@<TRIPOS>ATOM
      1 C         141.9168  139.3459  160.1805 C.3     1  UNL1        0.1518
      2 C         142.5729  138.8252  158.9361 C.3     1  UNL1        0.0310
      3 C         143.4657  139.9032  158.3969 C.3     1  UNL1        0.0237
      4 C         143.3614  141.0902  159.3082 C.3     1  UNL1        0.0939
      5 N         142.4041  140.7457  160.4104 N.am    1  UNL1       -0.2730
      6 C         142.0044  141.6435  161.5436 C.2     1  UNL1        0.2273
      7 O         141.0313  141.1586  162.5772 O.2     1  UNL1       -0.2748
      8 N         139.5145  139.0450  161.1233 N.am    1  UNL1       -0.2991
      9 C         140.9441  138.5979  161.0434 C.2     1  UNL1        0.2408
     10 O         141.4011  137.4029  161.8264 O.2     1  UNL1       -0.2733
     11 H         139.2147  139.8294  160.6094 H       1  UNL1        0.1498
     12 C         138.5419  138.2972  161.9862 C.3     1  UNL1        0.1164
     13 C         138.4842  138.9892  166.4323 C.ar    1  UNL1        0.1389
     14 C         138.9157  137.6608  165.8856 C.ar    1  UNL1        0.0366
     15 C         138.9350  137.4301  164.4035 C.ar    1  UNL1        0.0005
     16 C         138.5227  138.5279  163.4682 C.ar    1  UNL1       -0.0024
     17 C         138.0911  139.8563  164.0149 C.ar    1  UNL1        0.0005
     18 C         138.0719  140.0870  165.4969 C.ar    1  UNL1        0.0366
     19 O         138.4650  139.2199  167.9143 O.3     1  UNL1       -0.4736
     20 C         139.4858  140.1187  168.5467 C.3     1  UNL1        0.2017
     21 C         141.8404  139.7991  167.4961 C.3     1  UNL1        0.0041
     22 C         140.6268  140.6491  167.7301 C.3     1  UNL1        0.0456
     23 C         140.5542  142.0294  167.1476 C.3     1  UNL1        0.0041
     24 C         139.3657  140.4872  169.9959 C.2     1  UNL1        0.0900
     25 O         139.1619  141.9198  170.3911 O.co2   1  UNL1       -0.5455
     26 O         139.4493  139.4231  171.0497 O.co2   1  UNL1       -0.5455
     27 C         142.5776  143.0260  161.6434 C.3     1  UNL1        0.1010
     28 C         141.9473  144.1559  160.8846 C.3     1  UNL1        0.0644
     29 N         142.2177  144.3174  159.4180 N.3     1  UNL1       -0.3215
     30 H         142.8457  143.5773  159.1046 H       1  UNL1        0.1188
     31 H         142.6516  145.2252  159.2502 H       1  UNL1        0.1188
     32 C         141.0467  145.1244  161.5923 C.3     1  UNL1        0.0447
     33 C         139.9567  144.6170  162.4893 C.ar    1  UNL1        0.0088
     34 C         139.9346  145.0074  163.9374 C.ar    1  UNL1        0.0276
     35 C         138.8447  144.5000  164.8344 C.ar    1  UNL1        0.1400
     36 F         138.8225  144.8904  166.2825 F       1  UNL1       -0.2042
     37 C         137.7769  143.6021  164.2833 C.ar    1  UNL1        0.0319
     38 C         137.7991  143.2117  162.8352 C.ar    1  UNL1        0.0316
     39 C         138.8890  143.7191  161.9381 C.ar    1  UNL1        0.1363
     40 F         138.9112  143.3287  160.4900 F       1  UNL1       -0.2045
@<TRIPOS>UNITY_ATOM_ATTR
25 1
charge -1
@<TRIPOS>BOND
     1    21    22    1
     2    22    23    1
     3    22    20    1
     4    20    19    1
     5    19    13    1
     6    13    14   ar
     7    14    15   ar
     8    15    16   ar
     9    16    12    1
    10    12     8    1
    11     8     9   am
    12     9    10    2
    13     1     9    1
    14     1     2    1
    15     2     3    1
    16     3     4    1
    17     4     5    1
    18     5     6   am
    19     6     7    2
    20     6    27    1
    21    27    28    1
    22    28    29    1
    23    28    32    1
    24    32    33    1
    25    33    34   ar
    26    34    35   ar
    27    35    36    1
    28    35    37   ar
    29    37    38   ar
    30    38    39   ar
    31    39    40    1
    32    16    17   ar
    33    17    18   ar
    34    20    24    1
    35    24    25   ar
    36    24    26   ar
    37    18    13   ar
    38     5     1    1
    39    39    33   ar
    40     8    11    1
    41    29    30    1
    42    29    31    1
@<TRIPOS>MOLECULE
*****
 40 42 0 0 0
SMALL
GASTEIGER

@<TRIPOS>ATOM
      1 C         140.4738  144.2055  160.4776 C.3     1  UNL1        0.1518
      2 C         140.2632  145.2049  159.3789 C.3     1  UNL1        0.0310
      3 C         141.4065  145.0826  158.4157 C.3     1  UNL1        0.0237
      4 C         142.3237  144.0076  158.9190 C.3     1  UNL1        0.0939
      5 N         141.7472  143.4656  160.1933 N.am    1  UNL1       -0.2730
      6 C         142.3401  142.3751  161.0355 C.2     1  UNL1        0.2273
      7 O         141.6463  141.9358  162.2909 O.2     1  UNL1       -0.2748
      8 N         140.0282  144.3573  163.0327 N.am    1  UNL1       -0.2991
      9 C         139.5695  143.9849  161.6540 C.2     1  UNL1        0.2408
     10 O         138.2067  143.3919  161.4516 O.2     1  UNL1       -0.2733
     11 H         140.9227  144.7466  163.1655 H       1  UNL1        0.1498
     12 C         139.1241  144.1367  164.2090 C.3     1  UNL1        0.1164
     13 C         139.9336  140.7557  167.0662 C.ar    1  UNL1        0.1389
     14 C         139.1145  140.5155  165.8328 C.ar    1  UNL1        0.0366
     15 C         138.8447  141.6425  164.8804 C.ar    1  UNL1        0.0005
     16 C         139.3939  143.0097  165.1614 C.ar    1  UNL1       -0.0024
     17 C         140.2130  143.2499  166.3948 C.ar    1  UNL1        0.0005
     18 C         140.4829  142.1229  167.3472 C.ar    1  UNL1        0.0366
     19 O         140.2034  139.6287  168.0186 O.3     1  UNL1       -0.4736
     20 C         140.7598  139.9156  169.3817 C.3     1  UNL1        0.2017
     21 C         142.8308  138.4693  169.9894 C.3     1  UNL1        0.0041
     22 C         142.2344  139.7979  169.6299 C.3     1  UNL1        0.0456
     23 C         143.1126  141.0088  169.5187 C.3     1  UNL1        0.0041
     24 C         139.8414  140.3202  170.4967 C.2     1  UNL1        0.0900
     25 O         140.3856  141.0495  171.6892 O.co2   1  UNL1       -0.5455
     26 O         138.3791  139.9955  170.4191 O.co2   1  UNL1       -0.5455
     27 C         143.6266  141.7239  160.6225 C.3     1  UNL1        0.1010
     28 C         144.4958  141.0617  161.6501 C.3     1  UNL1        0.0644
     29 N         145.4644  141.8791  162.4524 N.3     1  UNL1       -0.3215
     30 H         145.3990  142.8572  162.1704 H       1  UNL1        0.1188
     31 H         146.4125  141.5406  162.2882 H       1  UNL1        0.1188
     32 C         144.3964  139.5820  161.8754 C.3     1  UNL1        0.0447
     33 C         143.4769  139.0443  162.9315 C.ar    1  UNL1        0.0088
     34 C         142.1556  138.4496  162.5434 C.ar    1  UNL1        0.0276
     35 C         141.2361  137.9118  163.5994 C.ar    1  UNL1        0.1400
     36 F         139.9148  137.3171  163.2114 F       1  UNL1       -0.2042
     37 C         141.6377  137.9688  165.0436 C.ar    1  UNL1        0.0319
     38 C         142.9590  138.5635  165.4316 C.ar    1  UNL1        0.0316
     39 C         143.8786  139.1013  164.3756 C.ar    1  UNL1        0.1363
     40 F         145.1999  139.6960  164.7636 F       1  UNL1       -0.2045
@<TRIPOS>UNITY_ATOM_ATTR
25 1
charge -1
@<TRIPOS>BOND
     1    21    22    1
     2    22    23    1
     3    22    20    1
     4    20    19    1
     5    19    13    1
     6    13    14   ar
     7    14    15   ar
     8    15    16   ar
     9    16    12    1
    10    12     8    1
    11     8     9   am
    12     9    10    2
    13     1     9    1
    14     1     2    1
    15     2     3    1
    16     3     4    1
    17     4     5    1
    18     5     6   am
    19     6     7    2
    20     6    27    1
    21    27    28    1
    22    28    29    1
    23    28    32    1
    24    32    33    1
    25    33    34   ar
    26    34    35   ar
    27    35    36    1
    28    35    37   ar
    29    37    38   ar
    30    38    39   ar
    31    39    40    1
    32    16    17   ar
    33    17    18   ar
    34    20    24    1
    35    24    25   ar
    36    24    26   ar
    37    18    13   ar
    38     5     1    1
    39    39    33   ar
    40     8    11    1
    41    29    30    1
    42    29    31    1
@<TRIPOS>MOLECULE
*****
 40 42 0 0 0
SMALL
GASTEIGER

@<TRIPOS>ATOM
      1 C         143.7713  142.5659  159.7830 C.3     1  UNL1        0.1518
      2 C         144.3525  142.5621  158.4002 C.3     1  UNL1        0.0310
      3 C         143.4812  143.4174  157.5288 C.3     1  UNL1        0.0237
      4 C         142.3615  143.9498  158.3732 C.3     1  UNL1        0.0939
      5 N         142.5408  143.4236  159.7663 N.am    1  UNL1       -0.2730
      6 C         141.6466  143.7055  160.9371 C.2     1  UNL1        0.2273
      7 O         141.9542  143.1057  162.2773 O.2     1  UNL1       -0.2748
      8 N         145.0244  142.6022  162.0587 N.am    1  UNL1       -0.2991
      9 C         144.3238  141.8396  160.9736 C.2     1  UNL1        0.2408
     10 O         144.1755  140.3507  161.0791 O.2     1  UNL1       -0.2733
     11 H         145.1218  143.5795  161.9895 H       1  UNL1        0.1498
     12 C         145.5768  141.8760  163.2492 C.3     1  UNL1        0.1164
     13 C         142.8133  140.4802  166.5149 C.ar    1  UNL1        0.1389
     14 C         143.5020  139.4786  165.6361 C.ar    1  UNL1        0.0366
     15 C         144.4232  139.9438  164.5476 C.ar    1  UNL1        0.0005
     16 C         144.6557  141.4108  164.3378 C.ar    1  UNL1       -0.0024
     17 C         143.9670  142.4124  165.2166 C.ar    1  UNL1        0.0005
     18 C         143.0458  141.9472  166.3051 C.ar    1  UNL1        0.0366
     19 O         141.8922  140.0150  167.6035 O.3     1  UNL1       -0.4736
     20 C         141.8075  140.7787  168.8917 C.3     1  UNL1        0.2017
     21 C         140.4385  142.9406  169.3412 C.3     1  UNL1        0.0041
     22 C         140.5223  141.4439  169.2863 C.3     1  UNL1        0.0456
     23 C         139.3209  140.6125  169.6258 C.3     1  UNL1        0.0041
     24 C         143.0082  140.8771  169.7855 C.2     1  UNL1        0.0900
     25 O         143.8567  142.1140  169.7682 O.co2   1  UNL1       -0.5455
     26 O         143.3603  139.7387  170.6966 O.co2   1  UNL1       -0.5455
     27 C         140.4450  144.5871  160.7681 C.3     1  UNL1        0.1010
     28 C         139.8501  145.2807  161.9576 C.3     1  UNL1        0.0644
     29 N         140.4947  146.5206  162.5027 N.3     1  UNL1       -0.3215
     30 H         141.3198  146.7471  161.9474 H       1  UNL1        0.1188
     31 H         140.7702  146.3626  163.4720 H       1  UNL1        0.1188
     32 C         138.6107  144.7344  162.6021 C.3     1  UNL1        0.0447
     33 C         138.6676  143.4422  163.3617 C.ar    1  UNL1        0.0088
     34 C         138.0658  142.1999  162.7744 C.ar    1  UNL1        0.0276
     35 C         138.1226  140.9078  163.5340 C.ar    1  UNL1        0.1400
     36 F         137.5209  139.6655  162.9468 F       1  UNL1       -0.2042
     37 C         138.7812  140.8577  164.8808 C.ar    1  UNL1        0.0319
     38 C         139.3830  142.0999  165.4680 C.ar    1  UNL1        0.0316
     39 C         139.3262  143.3922  164.7085 C.ar    1  UNL1        0.1363
     40 F         139.9279  144.6344  165.2956 F       1  UNL1       -0.2045
@<TRIPOS>UNITY_ATOM_ATTR
25 1
charge -1
@<TRIPOS>BOND
     1    21    22    1
     2    22    23    1
     3    22    20    1
     4    20    19    1
     5    19    13    1
     6    13    14   ar
     7    14    15   ar
     8    15    16   ar
     9    16    12    1
    10    12     8    1
    11     8     9   am
    12     9    10    2
    13     1     9    1
    14     1     2    1
    15     2     3    1
    16     3     4    1
    17     4     5    1
    18     5     6   am
    19     6     7    2
    20     6    27    1
    21    27    28    1
    22    28    29    1
    23    28    32    1
    24    32    33    1
    25    33    34   ar
    26    34    35   ar
    27    35    36    1
    28    35    37   ar
    29    37    38   ar
    30    38    39   ar
    31    39    40    1
    32    16    17   ar
    33    17    18   ar
    34    20    24    1
    35    24    25   ar
    36    24    26   ar
    37    18    13   ar
    38     5     1    1
    39    39    33   ar
    40     8    11    1
    41    29    30    1
    42    29    31    1
@<TRIPOS>MOLECULE
*****
 40 42 0 0 0
SMALL
GASTEIGER

@<TRIPOS>ATOM
      1 C         140.5824  144.8780  159.6112 C.3     1  UNL1        0.1518
      2 C         140.9172  145.6431  158.3652 C.3     1  UNL1        0.0310
      3 C         140.3177  144.9150  157.1988 C.3     1  UNL1        0.0237
      4 C         139.6123  143.6998  157.7240 C.3     1  UNL1        0.0939
      5 N         139.7759  143.6769  159.2149 N.am    1  UNL1       -0.2730
      6 C         139.2290  142.6358  160.1460 C.2     1  UNL1        0.2273
      7 O         139.4748  142.7459  161.6217 O.2     1  UNL1       -0.2748
      8 N         142.2546  144.7069  161.5923 N.am    1  UNL1       -0.2991
      9 C         140.9836  145.2488  161.0082 C.2     1  UNL1        0.2408
     10 O         140.1140  146.1614  161.8210 O.2     1  UNL1       -0.2733
     11 H         142.8253  144.1079  161.0587 H       1  UNL1        0.1498
     12 C         142.6558  145.0777  162.9892 C.3     1  UNL1        0.1164
     13 C         141.9574  142.1930  166.3715 C.ar    1  UNL1        0.1389
     14 C         140.7964  142.8983  165.7356 C.ar    1  UNL1        0.0366
     15 C         141.0292  143.8599  164.6081 C.ar    1  UNL1        0.0005
     16 C         142.4230  144.1162  164.1166 C.ar    1  UNL1       -0.0024
     17 C         143.5840  143.4108  164.7526 C.ar    1  UNL1        0.0005
     18 C         143.3512  142.4492  165.8801 C.ar    1  UNL1        0.0366
     19 O         141.7246  141.2314  167.4990 O.3     1  UNL1       -0.4736
     20 C         141.8430  141.6983  168.9195 C.3     1  UNL1        0.2017
     21 C         139.5403  141.4087  170.0873 C.3     1  UNL1        0.0041
     22 C         140.6549  142.2943  169.6146 C.3     1  UNL1        0.0456
     23 C         140.5814  143.7759  169.8371 C.3     1  UNL1        0.0041
     24 C         143.1496  141.5693  169.6450 C.2     1  UNL1        0.0900
     25 O         143.4699  140.3103  170.3949 O.co2   1  UNL1       -0.5455
     26 O         144.1359  142.6991  169.6205 O.co2   1  UNL1       -0.5455
     27 C         138.4363  141.4847  159.6016 C.3     1  UNL1        0.1010
     28 C         138.6748  140.0976  160.1205 C.3     1  UNL1        0.0644
     29 N         139.8639  139.3145  159.6485 N.3     1  UNL1       -0.3215
     30 H         140.3970  139.8740  158.9828 H       1  UNL1        0.1188
     31 H         139.5482  138.4567  159.1959 H       1  UNL1        0.1188
     32 C         137.7243  139.4938  161.1113 C.3     1  UNL1        0.0447
     33 C         138.1036  139.4108  162.5602 C.ar    1  UNL1        0.0088
     34 C         138.8492  138.2144  163.0729 C.ar    1  UNL1        0.0276
     35 C         139.2286  138.1315  164.5217 C.ar    1  UNL1        0.1400
     36 F         139.9741  136.9351  165.0345 F       1  UNL1       -0.2042
     37 C         138.8625  139.2449  165.4579 C.ar    1  UNL1        0.0319
     38 C         138.1170  140.4412  164.9451 C.ar    1  UNL1        0.0316
     39 C         137.7375  140.5242  163.4962 C.ar    1  UNL1        0.1363
     40 F         136.9920  141.7206  162.9835 F       1  UNL1       -0.2045
@<TRIPOS>UNITY_ATOM_ATTR
25 1
charge -1
@<TRIPOS>BOND
     1    21    22    1
     2    22    23    1
     3    22    20    1
     4    20    19    1
     5    19    13    1
     6    13    14   ar
     7    14    15   ar
     8    15    16   ar
     9    16    12    1
    10    12     8    1
    11     8     9   am
    12     9    10    2
    13     1     9    1
    14     1     2    1
    15     2     3    1
    16     3     4    1
    17     4     5    1
    18     5     6   am
    19     6     7    2
    20     6    27    1
    21    27    28    1
    22    28    29    1
    23    28    32    1
    24    32    33    1
    25    33    34   ar
    26    34    35   ar
    27    35    36    1
    28    35    37   ar
    29    37    38   ar
    30    38    39   ar
    31    39    40    1
    32    16    17   ar
    33    17    18   ar
    34    20    24    1
    35    24    25   ar
    36    24    26   ar
    37    18    13   ar
    38     5     1    1
    39    39    33   ar
    40     8    11    1
    41    29    30    1
    42    29    31    1
@<TRIPOS>MOLECULE
*****
 40 42 0 0 0
SMALL
GASTEIGER

@<TRIPOS>ATOM
      1 C         139.2206  142.0335  159.9182 C.3     1  UNL1        0.1518
      2 C         138.5186  142.0883  158.5938 C.3     1  UNL1        0.0310
      3 C         139.5591  142.0321  157.5148 C.3     1  UNL1        0.0237
      4 C         140.9043  141.9426  158.1725 C.3     1  UNL1        0.0939
      5 N         140.6951  141.9434  159.6578 N.am    1  UNL1       -0.2730
      6 C         141.7714  141.8675  160.6998 C.2     1  UNL1        0.2273
      7 O         141.4084  141.8782  162.1552 O.2     1  UNL1       -0.2748
      8 N         138.4565  140.8056  162.0766 N.am    1  UNL1       -0.2991
      9 C         138.5636  142.0634  161.2663 C.2     1  UNL1        0.2408
     10 O         138.0136  143.3511  161.8042 O.2     1  UNL1       -0.2733
     11 H         138.8174  139.9604  161.7235 H       1  UNL1        0.1498
     12 C         137.7994  140.8355  163.4246 C.3     1  UNL1        0.1164
     13 C         140.2860  140.3998  167.1498 C.ar    1  UNL1        0.1389
     14 C         140.6481  141.4314  166.1228 C.ar    1  UNL1        0.0366
     15 C         139.8192  141.5766  164.8811 C.ar    1  UNL1        0.0005
     16 C         138.6283  140.6903  164.6664 C.ar    1  UNL1       -0.0024
     17 C         138.2662  139.6588  165.6934 C.ar    1  UNL1        0.0005
     18 C         139.0951  139.5136  166.9351 C.ar    1  UNL1        0.0366
     19 O         141.1149  140.2546  168.3916 O.3     1  UNL1       -0.4736
     20 C         140.8419  141.1258  169.5817 C.3     1  UNL1        0.2017
     21 C         140.4170  143.6658  169.2377 C.3     1  UNL1        0.0041
     22 C         141.3389  142.5409  169.6050 C.3     1  UNL1        0.0456
     23 C         142.7577  142.8312  169.9957 C.3     1  UNL1        0.0041
     24 C         140.0719  140.5820  170.7485 C.2     1  UNL1        0.0900
     25 O         138.8333  139.7685  170.5161 O.co2   1  UNL1       -0.5455
     26 O         140.5406  140.8517  172.1476 O.co2   1  UNL1       -0.5455
     27 C         143.2107  141.7809  160.2865 C.3     1  UNL1        0.1010
     28 C         144.2192  141.1590  161.2065 C.3     1  UNL1        0.0644
     29 N         145.2595  142.0142  161.8670 N.3     1  UNL1       -0.3215
     30 H         145.1338  142.9850  161.5802 H       1  UNL1        0.1188
     31 H         146.1879  141.6953  161.5899 H       1  UNL1        0.1188
     32 C         144.1873  139.6820  161.4658 C.3     1  UNL1        0.0447
     33 C         143.4422  139.1446  162.6517 C.ar    1  UNL1        0.0088
     34 C         142.0868  138.5283  162.4694 C.ar    1  UNL1        0.0276
     35 C         141.3418  137.9910  163.6552 C.ar    1  UNL1        0.1400
     36 F         139.9864  137.3747  163.4731 F       1  UNL1       -0.2042
     37 C         141.9520  138.0699  165.0233 C.ar    1  UNL1        0.0319
     38 C         143.3073  138.6863  165.2054 C.ar    1  UNL1        0.0316
     39 C         144.0525  139.2236  164.0196 C.ar    1  UNL1        0.1363
     40 F         145.4079  139.8400  164.2018 F       1  UNL1       -0.2045
@<TRIPOS>UNITY_ATOM_ATTR
25 1
charge -1
@<TRIPOS>BOND
     1    21    22    1
     2    22    23    1
     3    22    20    1
     4    20    19    1
     5    19    13    1
     6    13    14   ar
     7    14    15   ar
     8    15    16   ar
     9    16    12    1
    10    12     8    1
    11     8     9   am
    12     9    10    2
    13     1     9    1
    14     1     2    1
    15     2     3    1
    16     3     4    1
    17     4     5    1
    18     5     6   am
    19     6     7    2
    20     6    27    1
    21    27    28    1
    22    28    29    1
    23    28    32    1
    24    32    33    1
    25    33    34   ar
    26    34    35   ar
    27    35    36    1
    28    35    37   ar
    29    37    38   ar
    30    38    39   ar
    31    39    40    1
    32    16    17   ar
    33    17    18   ar
    34    20    24    1
    35    24    25   ar
    36    24    26   ar
    37    18    13   ar
    38     5     1    1
    39    39    33   ar
    40     8    11    1
    41    29    30    1
    42    29    31    1
@<TRIPOS>MOLECULE
*****
 40 42 0 0 0
SMALL
GASTEIGER

@<TRIPOS>ATOM
      1 C         141.2226  144.3320  159.8092 C.3     1  UNL1        0.1518
      2 C         141.3676  145.2121  158.6031 C.3     1  UNL1        0.0310
      3 C         140.3578  144.7727  157.5846 C.3     1  UNL1        0.0237
      4 C         139.5887  143.6211  158.1612 C.3     1  UNL1        0.0939
      5 N         140.1232  143.3488  159.5361 N.am    1  UNL1       -0.2730
      6 C         139.6427  142.2807  160.4732 C.2     1  UNL1        0.2273
      7 O         140.2770  142.1271  161.8238 O.2     1  UNL1       -0.2748
      8 N         141.4559  145.0691  162.2896 N.am    1  UNL1       -0.2991
      9 C         142.0345  144.4198  161.0674 C.2     1  UNL1        0.2408
     10 O         143.4250  143.8583  161.1035 O.2     1  UNL1       -0.2733
     11 H         140.5433  145.4376  162.2659 H       1  UNL1        0.1498
     12 C         142.2678  145.1569  163.5478 C.3     1  UNL1        0.1164
     13 C         142.4269  141.6570  166.3718 C.ar    1  UNL1        0.1389
     14 C         143.6983  142.2605  165.8531 C.ar    1  UNL1        0.0366
     15 C         143.6453  143.4272  164.9117 C.ar    1  UNL1        0.0005
     16 C         142.3208  143.9903  164.4891 C.ar    1  UNL1       -0.0024
     17 C         141.0494  143.3868  165.0079 C.ar    1  UNL1        0.0005
     18 C         141.1024  142.2201  165.9492 C.ar    1  UNL1        0.0366
     19 O         142.4799  140.4904  167.3132 O.3     1  UNL1       -0.4736
     20 C         142.3361  140.7110  168.7898 C.3     1  UNL1        0.2017
     21 C         141.4606  143.0186  169.6016 C.3     1  UNL1        0.0041
     22 C         142.5980  142.0673  169.3745 C.3     1  UNL1        0.0456
     23 C         143.9973  142.4724  169.7321 C.3     1  UNL1        0.0041
     24 C         141.9303  139.5754  169.6819 C.2     1  UNL1        0.0900
     25 O         142.9199  138.5023  170.0271 O.co2   1  UNL1       -0.5455
     26 O         140.5349  139.5128  170.2286 O.co2   1  UNL1       -0.5455
     27 C         138.5280  141.3661  160.0598 C.3     1  UNL1        0.1010
     28 C         137.9952  140.3490  161.0250 C.3     1  UNL1        0.0644
     29 N         137.0044  140.7577  162.0744 N.3     1  UNL1       -0.3215
     30 H         136.8074  141.7546  161.9861 H       1  UNL1        0.1188
     31 H         137.3908  140.5681  162.9991 H       1  UNL1        0.1188
     32 C         138.4533  138.9231  160.9409 C.3     1  UNL1        0.0447
     33 C         139.3043  138.3432  162.0315 C.ar    1  UNL1        0.0088
     34 C         138.6807  137.9387  163.3344 C.ar    1  UNL1        0.0276
     35 C         139.5317  137.3587  164.4250 C.ar    1  UNL1        0.1400
     36 F         138.9082  136.9542  165.7280 F       1  UNL1       -0.2042
     37 C         141.0063  137.1832  164.2128 C.ar    1  UNL1        0.0319
     38 C         141.6298  137.5878  162.9099 C.ar    1  UNL1        0.0316
     39 C         140.7789  138.1677  161.8192 C.ar    1  UNL1        0.1363
     40 F         141.4024  138.5723  160.5163 F       1  UNL1       -0.2045
@<TRIPOS>UNITY_ATOM_ATTR
25 1
charge -1
@<TRIPOS>BOND
     1    21    22    1
     2    22    23    1
     3    22    20    1
     4    20    19    1
     5    19    13    1
     6    13    14   ar
     7    14    15   ar
     8    15    16   ar
     9    16    12    1
    10    12     8    1
    11     8     9   am
    12     9    10    2
    13     1     9    1
    14     1     2    1
    15     2     3    1
    16     3     4    1
    17     4     5    1
    18     5     6   am
    19     6     7    2
    20     6    27    1
    21    27    28    1
    22    28    29    1
    23    28    32    1
    24    32    33    1
    25    33    34   ar
    26    34    35   ar
    27    35    36    1
    28    35    37   ar
    29    37    38   ar
    30    38    39   ar
    31    39    40    1
    32    16    17   ar
    33    17    18   ar
    34    20    24    1
    35    24    25   ar
    36    24    26   ar
    37    18    13   ar
    38     5     1    1
    39    39    33   ar
    40     8    11    1
    41    29    30    1
    42    29    31    1
