@<TRIPOS>MOLECULE
*****
 40 46 0 0 0
SMALL
GASTEIGER

@<TRIPOS>ATOM
      1 C         138.4675  141.8227  164.4675 C.3     1  UNL1        0.0955
      2 C         138.1247  141.8162  163.0071 C.3     1  UNL1        0.0287
      3 C         138.1262  143.0996  162.2307 C.3     1  UNL1        0.0193
      4 C         138.4706  144.3895  162.9146 C.3     1  UNL1        0.0700
      5 C         138.8134  144.3960  164.3748 C.3     1  UNL1        0.0193
      6 C         138.8119  143.1126  165.1514 C.3     1  UNL1        0.0287
      7 C         138.4831  143.7115  163.3817 C.3     1  UNL1        0.1562
      8 O         138.4817  142.5510  164.0837 O.3     1  UNL1       -0.3571
      9 N         138.4721  145.6729  162.1381 N.3     1  UNL1       -0.2938
     10 H         138.1633  146.4047  162.7781 H       1  UNL1        0.1235
     11 C         139.7385  146.1619  161.5001 C.3     1  UNL1        0.0974
     12 C         140.8584  145.2027  161.2246 C.ar    1  UNL1        0.0180
     13 C         140.9793  144.5586  159.8753 C.ar    1  UNL1        0.0590
     14 CL        139.9803  144.8736  158.8015 Cl      1  UNL1       -0.0824
     15 C         142.0991  143.5994  159.5998 C.ar    1  UNL1        0.0512
     16 C         143.0981  143.2843  160.6734 C.ar    1  UNL1        0.1741
     17 C         142.9772  143.9285  162.0227 C.ar    1  UNL1        0.1826
     18 C         141.8574  144.8876  162.2983 C.ar    1  UNL1        0.0927
     19 CL        141.7365  145.5318  163.6475 Cl      1  UNL1       -0.0792
     20 O         143.9761  143.6135  163.0964 O.3     1  UNL1       -0.4675
     21 C         145.0959  142.6543  162.8208 C.3     1  UNL1        0.2527
     22 C         145.2169  142.0101  161.4717 C.3     1  UNL1        0.2526
     23 O         144.2179  142.3251  160.3979 O.3     1  UNL1       -0.4683
     24 C         138.4660  140.5393  165.2440 C.3     1  UNL1        0.0604
     25 O         138.8768  141.0193  170.3315 O.2     1  UNL1       -0.2670
     26 C         140.0774  140.3722  169.7070 C.ar    1  UNL1        0.2611
     27 C         141.2302  139.9437  170.5658 C.ar    1  UNL1        0.0623
     28 C         142.4307  139.2966  169.9413 C.ar    1  UNL1        0.0254
     29 C         142.4784  139.0779  168.4581 C.ar    1  UNL1        0.0972
     30 N         143.5334  138.4649  167.5741 N.ar    1  UNL1       -0.2400
     31 C         143.4389  138.3123  166.0849 C.ar    1  UNL1        0.1282
     32 C         142.2170  138.7906  165.3581 C.ar    1  UNL1        0.1588
     33 F         142.1224  138.6381  163.8689 F       1  UNL1       -0.2027
     34 C         141.0897  139.4216  166.1205 C.ar    1  UNL1        0.0500
     35 C         141.3256  139.5063  167.5994 C.ar    1  UNL1        0.0806
     36 N         140.1251  140.1535  168.2239 N.ar    1  UNL1       -0.2915
     37 C         139.1473  140.4686  167.1309 C.3     1  UNL1        0.1402
     38 C         139.7435  140.0163  165.8309 C.3     1  UNL1        0.1335
     39 O         140.0726  139.6733  164.4082 O.3     1  UNL1       -0.3806
     40 H         139.3393  139.9419  163.8329 H       1  UNL1        0.2108
@<TRIPOS>BOND
     1    25    26    2
     2    26    27   ar
     3    27    28   ar
     4    28    29   ar
     5    29    30   ar
     6    30    31   ar
     7    31    32   ar
     8    32    33    1
     9    32    34   ar
    10    34    35   ar
    11    35    36   ar
    12    36    37    1
    13    37    38    1
    14    38    39    1
    15    38    24    1
    16    24     1    1
    17     1     2    1
    18     2     3    1
    19     3     4    1
    20     4     9    1
    21     9    11    1
    22    11    12    1
    23    12    13   ar
    24    13    14    1
    25    13    15   ar
    26    15    16   ar
    27    16    17   ar
    28    17    18   ar
    29    18    19    1
    30    17    20    1
    31    20    21    1
    32    21    22    1
    33    22    23    1
    34     4     5    1
    35     5     6    1
    36     4     7    1
    37     7     8    1
    38    36    26   ar
    39     6     1    1
    40    35    29   ar
    41     8     1    1
    42    38    34    1
    43    18    12   ar
    44    23    16    1
    45    39    40    1
    46     9    10    1
@<TRIPOS>MOLECULE
*****
 40 46 0 0 0
SMALL
GASTEIGER

@<TRIPOS>ATOM
      1 C         138.1786  140.5944  164.0225 C.3     1  UNL1        0.0955
      2 C         138.2595  142.0918  164.0599 C.3     1  UNL1        0.0287
      3 C         138.2071  142.8778  162.7834 C.3     1  UNL1        0.0193
      4 C         138.0738  142.1665  161.4695 C.3     1  UNL1        0.0700
      5 C         137.9929  140.6692  161.4321 C.3     1  UNL1        0.0193
      6 C         138.0452  139.8831  162.7086 C.3     1  UNL1        0.0287
      7 C         138.0983  141.6929  162.1427 C.3     1  UNL1        0.1562
      8 O         138.1457  140.9822  163.2969 O.3     1  UNL1       -0.3571
      9 N         138.0214  142.9525  160.1930 N.3     1  UNL1       -0.2938
     10 H         137.4406  143.7711  160.3748 H       1  UNL1        0.1235
     11 C         139.2898  143.4520  159.5673 C.3     1  UNL1        0.0974
     12 C         140.5664  143.4492  160.3549 C.ar    1  UNL1        0.0180
     13 C         140.9866  144.6776  161.1063 C.ar    1  UNL1        0.0590
     14 CL        140.1304  145.9087  161.0700 Cl      1  UNL1       -0.0824
     15 C         142.2632  144.6749  161.8940 C.ar    1  UNL1        0.0512
     16 C         143.1195  143.4439  161.9303 C.ar    1  UNL1        0.1741
     17 C         142.6993  142.2156  161.1790 C.ar    1  UNL1        0.1826
     18 C         141.4227  142.2182  160.3913 C.ar    1  UNL1        0.0927
     19 CL        141.0025  140.9899  159.6399 Cl      1  UNL1       -0.0792
     20 O         143.5555  140.9846  161.2153 O.3     1  UNL1       -0.4675
     21 C         144.8320  140.9819  162.0029 C.3     1  UNL1        0.2527
     22 C         145.2523  142.2102  162.7543 C.3     1  UNL1        0.2526
     23 O         144.3960  143.4413  162.7180 O.3     1  UNL1       -0.4683
     24 C         138.2310  139.8083  165.2990 C.3     1  UNL1        0.0604
     25 O         138.4633  140.9251  170.2971 O.2     1  UNL1       -0.2670
     26 C         139.7503  140.3706  169.7620 C.ar    1  UNL1        0.2611
     27 C         140.9289  140.1976  170.6736 C.ar    1  UNL1        0.0623
     28 C         142.2158  139.6432  170.1385 C.ar    1  UNL1        0.0254
     29 C         142.3242  139.2617  168.6919 C.ar    1  UNL1        0.0972
     30 N         143.4684  138.6919  167.8941 N.ar    1  UNL1       -0.2400
     31 C         143.4274  138.3564  166.4326 C.ar    1  UNL1        0.1282
     32 C         142.1710  138.5850  165.6457 C.ar    1  UNL1        0.1588
     33 F         142.1300  138.2495  164.1843 F       1  UNL1       -0.2027
     34 C         140.9557  139.1490  166.3202 C.ar    1  UNL1        0.0500
     35 C         141.1456  139.4347  167.7804 C.ar    1  UNL1        0.0806
     36 N         139.8587  139.9892  168.3154 N.ar    1  UNL1       -0.2915
     37 C         138.8733  140.0461  167.1859 C.3     1  UNL1        0.1402
     38 C         139.5513  139.5268  165.9527 C.3     1  UNL1        0.1335
     39 O         139.9533  139.0663  164.5829 O.3     1  UNL1       -0.3806
     40 H         139.2047  139.1692  163.9746 H       1  UNL1        0.2108
@<TRIPOS>BOND
     1    25    26    2
     2    26    27   ar
     3    27    28   ar
     4    28    29   ar
     5    29    30   ar
     6    30    31   ar
     7    31    32   ar
     8    32    33    1
     9    32    34   ar
    10    34    35   ar
    11    35    36   ar
    12    36    37    1
    13    37    38    1
    14    38    39    1
    15    38    24    1
    16    24     1    1
    17     1     2    1
    18     2     3    1
    19     3     4    1
    20     4     9    1
    21     9    11    1
    22    11    12    1
    23    12    13   ar
    24    13    14    1
    25    13    15   ar
    26    15    16   ar
    27    16    17   ar
    28    17    18   ar
    29    18    19    1
    30    17    20    1
    31    20    21    1
    32    21    22    1
    33    22    23    1
    34     4     5    1
    35     5     6    1
    36     4     7    1
    37     7     8    1
    38    36    26   ar
    39     6     1    1
    40    35    29   ar
    41     8     1    1
    42    38    34    1
    43    18    12   ar
    44    23    16    1
    45    39    40    1
    46     9    10    1
@<TRIPOS>MOLECULE
*****
 40 46 0 0 0
SMALL
GASTEIGER

@<TRIPOS>ATOM
      1 C         138.3500  141.7935  164.5077 C.3     1  UNL1        0.0955
      2 C         139.2122  142.8129  165.1916 C.3     1  UNL1        0.0287
      3 C         140.1604  142.3886  166.2737 C.3     1  UNL1        0.0193
      4 C         140.2465  140.9450  166.6719 C.3     1  UNL1        0.0700
      5 C         139.3844  139.9257  165.9880 C.3     1  UNL1        0.0193
      6 C         138.4361  140.3499  164.9059 C.3     1  UNL1        0.0287
      7 C         139.7118  141.1296  166.0734 C.3     1  UNL1        0.1562
      8 O         138.8545  141.5133  165.0950 O.3     1  UNL1       -0.3571
      9 N         141.1947  140.5207  167.7540 N.3     1  UNL1       -0.2938
     10 H         140.7836  139.7013  168.2011 H       1  UNL1        0.1235
     11 C         142.6107  140.1629  167.4124 C.3     1  UNL1        0.0974
     12 C         143.0877  140.2610  165.9936 C.ar    1  UNL1        0.0180
     13 C         143.7050  141.5344  165.4963 C.ar    1  UNL1        0.0590
     14 CL        143.8453  142.7098  166.4177 Cl      1  UNL1       -0.0824
     15 C         144.1820  141.6326  164.0775 C.ar    1  UNL1        0.0512
     16 C         144.0417  140.4573  163.1561 C.ar    1  UNL1        0.1741
     17 C         143.4245  139.1839  163.6534 C.ar    1  UNL1        0.1826
     18 C         142.9475  139.0857  165.0722 C.ar    1  UNL1        0.0927
     19 CL        142.3302  137.8123  165.5695 Cl      1  UNL1       -0.0792
     20 O         143.2842  138.0086  162.7321 O.3     1  UNL1       -0.4675
     21 C         143.7612  138.1067  161.3133 C.3     1  UNL1        0.2527
     22 C         144.3784  139.3801  160.8160 C.3     1  UNL1        0.2526
     23 O         144.5188  140.5555  161.7373 O.3     1  UNL1       -0.4683
     24 C         137.4019  142.2178  163.4256 C.3     1  UNL1        0.0604
     25 O         140.2747  146.1382  161.7947 O.2     1  UNL1       -0.2670
     26 C         140.0130  145.1208  160.7240 C.ar    1  UNL1        0.2611
     27 C         140.5766  145.3181  159.3481 C.ar    1  UNL1        0.0623
     28 C         140.3149  144.3007  158.2774 C.ar    1  UNL1        0.0254
     29 C         139.4895  143.0860  158.5827 C.ar    1  UNL1        0.0972
     30 N         139.0721  141.9220  157.7217 N.ar    1  UNL1       -0.2400
     31 C         138.2331  140.7634  158.1730 C.ar    1  UNL1        0.1282
     32 C         137.7382  140.7019  159.5876 C.ar    1  UNL1        0.1588
     33 F         136.8991  139.5434  160.0389 F       1  UNL1       -0.2027
     34 C         138.0823  141.7990  160.5510 C.ar    1  UNL1        0.0500
     35 C         138.9259  142.8887  159.9586 C.ar    1  UNL1        0.0806
     36 N         139.1876  143.9061  161.0293 N.ar    1  UNL1       -0.2915
     37 C         138.5058  143.4452  162.2834 C.3     1  UNL1        0.1402
     38 C         137.8227  142.1429  161.9878 C.3     1  UNL1        0.1335
     39 O         137.0516  140.8563  161.9927 O.3     1  UNL1       -0.3806
     40 H         136.6768  140.7073  162.8749 H       1  UNL1        0.2108
@<TRIPOS>BOND
     1    25    26    2
     2    26    27   ar
     3    27    28   ar
     4    28    29   ar
     5    29    30   ar
     6    30    31   ar
     7    31    32   ar
     8    32    33    1
     9    32    34   ar
    10    34    35   ar
    11    35    36   ar
    12    36    37    1
    13    37    38    1
    14    38    39    1
    15    38    24    1
    16    24     1    1
    17     1     2    1
    18     2     3    1
    19     3     4    1
    20     4     9    1
    21     9    11    1
    22    11    12    1
    23    12    13   ar
    24    13    14    1
    25    13    15   ar
    26    15    16   ar
    27    16    17   ar
    28    17    18   ar
    29    18    19    1
    30    17    20    1
    31    20    21    1
    32    21    22    1
    33    22    23    1
    34     4     5    1
    35     5     6    1
    36     4     7    1
    37     7     8    1
    38    36    26   ar
    39     6     1    1
    40    35    29   ar
    41     8     1    1
    42    38    34    1
    43    18    12   ar
    44    23    16    1
    45    39    40    1
    46     9    10    1
@<TRIPOS>MOLECULE
*****
 40 46 0 0 0
SMALL
GASTEIGER

@<TRIPOS>ATOM
      1 C         137.8920  140.6371  161.8608 C.3     1  UNL1        0.0955
      2 C         137.7304  140.5187  163.3475 C.3     1  UNL1        0.0287
      3 C         137.6813  141.7538  164.1973 C.3     1  UNL1        0.0193
      4 C         137.7938  143.1073  163.5605 C.3     1  UNL1        0.0700
      5 C         137.9553  143.2256  162.0739 C.3     1  UNL1        0.0193
      6 C         138.0044  141.9905  161.2241 C.3     1  UNL1        0.0287
      7 C         137.8260  142.4591  163.0536 C.3     1  UNL1        0.1562
      8 O         137.8704  141.3423  162.2852 O.3     1  UNL1       -0.3571
      9 N         137.7447  144.3424  164.4103 N.3     1  UNL1       -0.2938
     10 H         137.1973  144.1084  165.2386 H       1  UNL1        0.1235
     11 C         139.0178  144.9697  164.8956 C.3     1  UNL1        0.0974
     12 C         140.3355  144.5223  164.3357 C.ar    1  UNL1        0.0180
     13 C         140.8748  145.1574  163.0883 C.ar    1  UNL1        0.0590
     14 CL        140.0964  146.2400  162.4010 Cl      1  UNL1       -0.0824
     15 C         142.1924  144.7101  162.5283 C.ar    1  UNL1        0.0512
     16 C         142.9708  143.6276  163.2156 C.ar    1  UNL1        0.1741
     17 C         142.4315  142.9925  164.4629 C.ar    1  UNL1        0.1826
     18 C         141.1139  143.4398  165.0229 C.ar    1  UNL1        0.0927
     19 CL        140.5746  142.8047  166.2702 Cl      1  UNL1       -0.0792
     20 O         143.2098  141.9100  165.1502 O.3     1  UNL1       -0.4675
     21 C         144.5275  141.4626  164.5901 C.3     1  UNL1        0.2527
     22 C         145.0668  142.0976  163.3429 C.3     1  UNL1        0.2526
     23 O         144.2885  143.1802  162.6555 O.3     1  UNL1       -0.4683
     24 C         137.9410  139.4020  161.0110 C.3     1  UNL1        0.0604
     25 O         141.9677  138.6817  164.1012 O.2     1  UNL1       -0.2670
     26 C         142.2962  138.4652  162.6537 C.ar    1  UNL1        0.2611
     27 C         143.6884  138.0796  162.2501 C.ar    1  UNL1        0.0623
     28 C         144.0169  137.8632  160.8027 C.ar    1  UNL1        0.0254
     29 C         142.9532  138.0323  159.7588 C.ar    1  UNL1        0.0972
     30 N         142.9943  137.8830  158.2600 N.ar    1  UNL1       -0.2400
     31 C         141.8325  138.0875  157.3335 C.ar    1  UNL1        0.1282
     32 C         140.4923  138.4739  157.8852 C.ar    1  UNL1        0.1588
     33 F         139.3305  138.6785  156.9588 F       1  UNL1       -0.2027
     34 C         140.3138  138.6557  159.3635 C.ar    1  UNL1        0.0500
     35 C         141.5609  138.4180  160.1623 C.ar    1  UNL1        0.0806
     36 N         141.2325  138.6344  161.6098 N.ar    1  UNL1       -0.2915
     37 C         139.7824  139.0059  161.7055 C.3     1  UNL1        0.1402
     38 C         139.2146  139.0191  160.3172 C.3     1  UNL1        0.1335
     39 O         138.3806  139.1123  159.0739 O.3     1  UNL1       -0.3806
     40 H         137.4735  139.3612  159.3109 H       1  UNL1        0.2108
@<TRIPOS>BOND
     1    25    26    2
     2    26    27   ar
     3    27    28   ar
     4    28    29   ar
     5    29    30   ar
     6    30    31   ar
     7    31    32   ar
     8    32    33    1
     9    32    34   ar
    10    34    35   ar
    11    35    36   ar
    12    36    37    1
    13    37    38    1
    14    38    39    1
    15    38    24    1
    16    24     1    1
    17     1     2    1
    18     2     3    1
    19     3     4    1
    20     4     9    1
    21     9    11    1
    22    11    12    1
    23    12    13   ar
    24    13    14    1
    25    13    15   ar
    26    15    16   ar
    27    16    17   ar
    28    17    18   ar
    29    18    19    1
    30    17    20    1
    31    20    21    1
    32    21    22    1
    33    22    23    1
    34     4     5    1
    35     5     6    1
    36     4     7    1
    37     7     8    1
    38    36    26   ar
    39     6     1    1
    40    35    29   ar
    41     8     1    1
    42    38    34    1
    43    18    12   ar
    44    23    16    1
    45    39    40    1
    46     9    10    1
@<TRIPOS>MOLECULE
*****
 40 46 0 0 0
SMALL
GASTEIGER

@<TRIPOS>ATOM
      1 C         138.7426  138.9577  164.1832 C.3     1  UNL1        0.0955
      2 C         138.0780  140.2631  163.8599 C.3     1  UNL1        0.0287
      3 C         137.5464  140.5125  162.4796 C.3     1  UNL1        0.0193
      4 C         137.6792  139.4566  161.4226 C.3     1  UNL1        0.0700
      5 C         138.3437  138.1512  161.7459 C.3     1  UNL1        0.0193
      6 C         138.8754  137.9018  163.1262 C.3     1  UNL1        0.0287
      7 C         137.9860  139.2740  162.1647 C.3     1  UNL1        0.1562
      8 O         138.4668  139.0485  163.4127 O.3     1  UNL1       -0.3571
      9 N         137.1475  139.7060  160.0424 N.3     1  UNL1       -0.2938
     10 H         136.2976  140.2596  160.1497 H       1  UNL1        0.1235
     11 C         137.9978  140.4104  159.0271 C.3     1  UNL1        0.0974
     12 C         139.4743  140.5500  159.2524 C.ar    1  UNL1        0.0180
     13 C         140.4045  139.4520  158.8294 C.ar    1  UNL1        0.0590
     14 CL        139.8584  138.2144  158.1810 Cl      1  UNL1       -0.0824
     15 C         141.8810  139.5914  159.0546 C.ar    1  UNL1        0.0512
     16 C         142.4271  140.8289  159.7029 C.ar    1  UNL1        0.1741
     17 C         141.4969  141.9269  160.1260 C.ar    1  UNL1        0.1826
     18 C         140.0205  141.7874  159.9007 C.ar    1  UNL1        0.0927
     19 CL        139.0902  142.8854  160.3238 Cl      1  UNL1       -0.0792
     20 O         142.0430  143.1644  160.7743 O.3     1  UNL1       -0.4675
     21 C         143.5194  143.3038  160.9995 C.3     1  UNL1        0.2527
     22 C         144.4497  142.2059  160.5765 C.3     1  UNL1        0.2526
     23 O         143.9036  140.9683  159.9282 O.3     1  UNL1       -0.4683
     24 C         139.2743  138.7083  165.5635 C.3     1  UNL1        0.0604
     25 O         138.0901  140.0832  170.3583 O.2     1  UNL1       -0.2670
     26 C         139.3314  140.7533  169.8481 C.ar    1  UNL1        0.2611
     27 C         140.0807  141.7119  170.7253 C.ar    1  UNL1        0.0623
     28 C         141.3220  142.3820  170.2152 C.ar    1  UNL1        0.0254
     29 C         141.8139  142.0935  168.8279 C.ar    1  UNL1        0.0972
     30 N         143.0065  142.6099  168.0654 N.ar    1  UNL1       -0.2400
     31 C         143.3756  142.2247  166.6635 C.ar    1  UNL1        0.1282
     32 C         142.5257  141.2483  165.9056 C.ar    1  UNL1        0.1588
     33 F         142.8949  140.8631  164.5037 F       1  UNL1       -0.2027
     34 C         141.3068  140.6572  166.5496 C.ar    1  UNL1        0.0500
     35 C         141.0646  141.1349  167.9507 C.ar    1  UNL1        0.0806
     36 N         139.8233  140.4648  168.4608 N.ar    1  UNL1       -0.2915
     37 C         139.2984  139.5729  167.3750 C.3     1  UNL1        0.1402
     38 C         140.2153  139.6918  166.1937 C.3     1  UNL1        0.1335
     39 O         140.9354  139.6051  164.8808 O.3     1  UNL1       -0.3806
     40 H         140.4676  138.9891  164.2955 H       1  UNL1        0.2108
@<TRIPOS>BOND
     1    25    26    2
     2    26    27   ar
     3    27    28   ar
     4    28    29   ar
     5    29    30   ar
     6    30    31   ar
     7    31    32   ar
     8    32    33    1
     9    32    34   ar
    10    34    35   ar
    11    35    36   ar
    12    36    37    1
    13    37    38    1
    14    38    39    1
    15    38    24    1
    16    24     1    1
    17     1     2    1
    18     2     3    1
    19     3     4    1
    20     4     9    1
    21     9    11    1
    22    11    12    1
    23    12    13   ar
    24    13    14    1
    25    13    15   ar
    26    15    16   ar
    27    16    17   ar
    28    17    18   ar
    29    18    19    1
    30    17    20    1
    31    20    21    1
    32    21    22    1
    33    22    23    1
    34     4     5    1
    35     5     6    1
    36     4     7    1
    37     7     8    1
    38    36    26   ar
    39     6     1    1
    40    35    29   ar
    41     8     1    1
    42    38    34    1
    43    18    12   ar
    44    23    16    1
    45    39    40    1
    46     9    10    1
@<TRIPOS>MOLECULE
*****
 40 46 0 0 0
SMALL
GASTEIGER

@<TRIPOS>ATOM
      1 C         141.9508  143.9883  164.5947 C.3     1  UNL1        0.0955
      2 C         142.9978  143.1683  165.2887 C.3     1  UNL1        0.0287
      3 C         142.5978  142.1724  166.3367 C.3     1  UNL1        0.0193
      4 C         141.1508  141.9965  166.6908 C.3     1  UNL1        0.0700
      5 C         140.1039  142.8165  165.9968 C.3     1  UNL1        0.0193
      6 C         140.5038  143.8124  164.9488 C.3     1  UNL1        0.0287
      7 C         141.3215  142.5547  166.1099 C.3     1  UNL1        0.1562
      8 O         141.6832  143.4552  165.1623 O.3     1  UNL1       -0.3571
      9 N         140.7508  141.0007  167.7388 N.3     1  UNL1       -0.2938
     10 H         139.8708  141.3291  168.1364 H       1  UNL1        0.1235
     11 C         140.5477  139.5617  167.3672 C.3     1  UNL1        0.0974
     12 C         140.5449  139.1529  165.9240 C.ar    1  UNL1        0.0180
     13 C         141.7933  138.6070  165.2967 C.ar    1  UNL1        0.0590
     14 CL        143.0445  138.4698  166.1126 Cl      1  UNL1       -0.0824
     15 C         141.7905  138.1982  163.8535 C.ar    1  UNL1        0.0512
     16 C         140.5394  138.3353  163.0375 C.ar    1  UNL1        0.1741
     17 C         139.2910  138.8813  163.6648 C.ar    1  UNL1        0.1826
     18 C         139.2938  139.2901  165.1080 C.ar    1  UNL1        0.0927
     19 CL        138.0454  139.8361  165.7353 Cl      1  UNL1       -0.0792
     20 O         138.0398  139.0185  162.8489 O.3     1  UNL1       -0.4675
     21 C         138.0371  138.6097  161.4057 C.3     1  UNL1        0.2527
     22 C         139.2854  138.0638  160.7784 C.3     1  UNL1        0.2526
     23 O         140.5366  137.9266  161.5943 O.3     1  UNL1       -0.4683
     24 C         142.3508  144.9841  163.5467 C.3     1  UNL1        0.0604
     25 O         145.1778  141.3678  161.2637 O.2     1  UNL1       -0.2670
     26 C         144.1603  141.9792  160.3467 C.ar    1  UNL1        0.2611
     27 C         144.0566  141.5140  158.9245 C.ar    1  UNL1        0.0623
     28 C         143.0391  142.1254  158.0076 C.ar    1  UNL1        0.0254
     29 C         142.1252  143.2021  158.5129 C.ar    1  UNL1        0.0972
     30 N         141.0302  143.9814  157.8317 N.ar    1  UNL1       -0.2400
     31 C         140.1889  145.0434  158.4754 C.ar    1  UNL1        0.1282
     32 C         140.4085  145.4042  159.9147 C.ar    1  UNL1        0.1588
     33 F         139.5672  146.4662  160.5584 F       1  UNL1       -0.2027
     34 C         141.4694  144.7030  160.7102 C.ar    1  UNL1        0.0500
     35 C         142.2288  143.6674  159.9351 C.ar    1  UNL1        0.0806
     36 N         143.2463  143.0559  160.8521 N.ar    1  UNL1       -0.2915
     37 C         143.1158  143.7137  162.1938 C.3     1  UNL1        0.1402
     38 C         142.0176  144.7317  162.1062 C.3     1  UNL1        0.1335
     39 O         140.9890  145.8024  162.3197 O.3     1  UNL1       -0.3806
     40 H         141.0375  146.1194  163.2351 H       1  UNL1        0.2108
@<TRIPOS>BOND
     1    25    26    2
     2    26    27   ar
     3    27    28   ar
     4    28    29   ar
     5    29    30   ar
     6    30    31   ar
     7    31    32   ar
     8    32    33    1
     9    32    34   ar
    10    34    35   ar
    11    35    36   ar
    12    36    37    1
    13    37    38    1
    14    38    39    1
    15    38    24    1
    16    24     1    1
    17     1     2    1
    18     2     3    1
    19     3     4    1
    20     4     9    1
    21     9    11    1
    22    11    12    1
    23    12    13   ar
    24    13    14    1
    25    13    15   ar
    26    15    16   ar
    27    16    17   ar
    28    17    18   ar
    29    18    19    1
    30    17    20    1
    31    20    21    1
    32    21    22    1
    33    22    23    1
    34     4     5    1
    35     5     6    1
    36     4     7    1
    37     7     8    1
    38    36    26   ar
    39     6     1    1
    40    35    29   ar
    41     8     1    1
    42    38    34    1
    43    18    12   ar
    44    23    16    1
    45    39    40    1
    46     9    10    1
@<TRIPOS>MOLECULE
*****
 40 46 0 0 0
SMALL
GASTEIGER

@<TRIPOS>ATOM
      1 C         138.3998  141.7920  164.7016 C.3     1  UNL1        0.0955
      2 C         138.5601  140.3316  165.0046 C.3     1  UNL1        0.0287
      3 C         139.5093  139.8882  166.0780 C.3     1  UNL1        0.0193
      4 C         140.2983  140.9050  166.8484 C.3     1  UNL1        0.0700
      5 C         140.1380  142.3653  166.5454 C.3     1  UNL1        0.0193
      6 C         139.1888  142.8088  165.4720 C.3     1  UNL1        0.0287
      7 C         139.7904  141.1961  166.2693 C.3     1  UNL1        0.1562
      8 O         138.9321  141.5971  165.2988 O.3     1  UNL1       -0.3571
      9 N         141.2476  140.4615  167.9219 N.3     1  UNL1       -0.2938
     10 H         140.8602  139.6075  168.3231 H       1  UNL1        0.1235
     11 C         142.6794  140.1701  167.5832 C.3     1  UNL1        0.0974
     12 C         143.1566  140.3002  166.1670 C.ar    1  UNL1        0.0180
     13 C         143.2510  139.0849  165.2928 C.ar    1  UNL1        0.0590
     14 CL        142.8684  137.7395  165.8348 Cl      1  UNL1       -0.0824
     15 C         143.7282  139.2149  163.8767 C.ar    1  UNL1        0.0512
     16 C         144.1109  140.5601  163.3347 C.ar    1  UNL1        0.1741
     17 C         144.0164  141.7754  164.2088 C.ar    1  UNL1        0.1826
     18 C         143.5393  141.6455  165.6250 C.ar    1  UNL1        0.0927
     19 CL        143.4449  142.8607  166.4991 Cl      1  UNL1       -0.0792
     20 O         144.3991  143.1207  163.6669 O.3     1  UNL1       -0.4675
     21 C         144.8763  143.2507  162.2508 C.3     1  UNL1        0.2527
     22 C         144.9707  142.0355  161.3766 C.3     1  UNL1        0.2526
     23 O         144.5880  140.6901  161.9186 O.3     1  UNL1       -0.4683
     24 C         137.4505  142.2355  163.6281 C.3     1  UNL1        0.0604
     25 O         140.2720  146.1457  161.8869 O.2     1  UNL1       -0.2670
     26 C         140.0018  145.1079  160.8382 C.ar    1  UNL1        0.2611
     27 C         140.5439  145.2847  159.4508 C.ar    1  UNL1        0.0623
     28 C         140.2736  144.2469  158.4020 C.ar    1  UNL1        0.0254
     29 C         139.4613  143.0323  158.7406 C.ar    1  UNL1        0.0972
     30 N         139.0395  141.8506  157.9064 N.ar    1  UNL1       -0.2400
     31 C         138.2151  140.6945  158.3901 C.ar    1  UNL1        0.1282
     32 C         137.7413  140.6546  159.8127 C.ar    1  UNL1        0.1588
     33 F         136.9170  139.4986  160.2965 F       1  UNL1       -0.2027
     34 C         138.0919  141.7707  160.7516 C.ar    1  UNL1        0.0500
     35 C         138.9191  142.8555  160.1280 C.ar    1  UNL1        0.0806
     36 N         139.1894  143.8933  161.1767 N.ar    1  UNL1       -0.2915
     37 C         138.5292  143.4499  162.4485 C.3     1  UNL1        0.1402
     38 C         137.8508  142.1381  162.1858 C.3     1  UNL1        0.1335
     39 O         137.0888  140.8466  162.2246 O.3     1  UNL1       -0.3806
     40 H         136.7280  140.7107  163.1146 H       1  UNL1        0.2108
@<TRIPOS>BOND
     1    25    26    2
     2    26    27   ar
     3    27    28   ar
     4    28    29   ar
     5    29    30   ar
     6    30    31   ar
     7    31    32   ar
     8    32    33    1
     9    32    34   ar
    10    34    35   ar
    11    35    36   ar
    12    36    37    1
    13    37    38    1
    14    38    39    1
    15    38    24    1
    16    24     1    1
    17     1     2    1
    18     2     3    1
    19     3     4    1
    20     4     9    1
    21     9    11    1
    22    11    12    1
    23    12    13   ar
    24    13    14    1
    25    13    15   ar
    26    15    16   ar
    27    16    17   ar
    28    17    18   ar
    29    18    19    1
    30    17    20    1
    31    20    21    1
    32    21    22    1
    33    22    23    1
    34     4     5    1
    35     5     6    1
    36     4     7    1
    37     7     8    1
    38    36    26   ar
    39     6     1    1
    40    35    29   ar
    41     8     1    1
    42    38    34    1
    43    18    12   ar
    44    23    16    1
    45    39    40    1
    46     9    10    1
@<TRIPOS>MOLECULE
*****
 40 46 0 0 0
SMALL
GASTEIGER

@<TRIPOS>ATOM
      1 C         143.8015  139.1847  161.9601 C.3     1  UNL1        0.0955
      2 C         144.2038  140.4852  161.3301 C.3     1  UNL1        0.0287
      3 C         144.8552  141.5511  162.1606 C.3     1  UNL1        0.0193
      4 C         145.1043  141.3164  163.6210 C.3     1  UNL1        0.0700
      5 C         144.7020  140.0159  164.2510 C.3     1  UNL1        0.0193
      6 C         144.0506  138.9500  163.4205 C.3     1  UNL1        0.0287
      7 C         144.7444  140.7025  163.2066 C.3     1  UNL1        0.1562
      8 O         144.1554  139.7388  162.4557 O.3     1  UNL1       -0.3571
      9 N         145.7557  142.3822  164.4515 N.3     1  UNL1       -0.2938
     10 H         146.2869  142.9715  163.8105 H       1  UNL1        0.1235
     11 C         144.9143  143.3005  165.2874 C.3     1  UNL1        0.0974
     12 C         143.4444  143.4258  165.0161 C.ar    1  UNL1        0.0180
     13 C         142.4620  142.6325  165.8259 C.ar    1  UNL1        0.0590
     14 CL        142.9496  141.7140  166.9070 Cl      1  UNL1       -0.0824
     15 C         140.9921  142.7577  165.5546 C.ar    1  UNL1        0.0512
     16 C         140.5045  143.6761  164.4735 C.ar    1  UNL1        0.1741
     17 C         141.4868  144.4693  163.6637 C.ar    1  UNL1        0.1826
     18 C         142.9567  144.3442  163.9350 C.ar    1  UNL1        0.0927
     19 CL        143.9391  145.1374  163.1252 Cl      1  UNL1       -0.0792
     20 O         140.9993  145.3878  162.5827 O.3     1  UNL1       -0.4675
     21 C         139.5293  145.5129  162.3114 C.3     1  UNL1        0.2527
     22 C         138.5470  144.7198  163.1211 C.3     1  UNL1        0.2526
     23 O         139.0345  143.8013  164.2023 O.3     1  UNL1       -0.4683
     24 C         143.1501  138.1188  161.1296 C.3     1  UNL1        0.0604
     25 O         143.8895  136.9450  156.1942 O.2     1  UNL1       -0.2670
     26 C         142.5566  137.5840  156.4493 C.ar    1  UNL1        0.2611
     27 C         141.6055  137.8145  155.3125 C.ar    1  UNL1        0.0623
     28 C         140.2726  138.4535  155.5676 C.ar    1  UNL1        0.0254
     29 C         139.8907  138.8619  156.9595 C.ar    1  UNL1        0.0972
     30 N         138.6438  139.5115  157.5012 N.ar    1  UNL1       -0.2400
     31 C         138.4019  139.8653  158.9387 C.ar    1  UNL1        0.1282
     32 C         139.4512  139.5728  159.9698 C.ar    1  UNL1        0.1588
     33 F         139.2093  139.9266  161.4073 F       1  UNL1       -0.2027
     34 C         140.7425  138.9266  159.5636 C.ar    1  UNL1        0.0500
     35 C         140.8418  138.6314  158.0962 C.ar    1  UNL1        0.0806
     36 N         142.1747  137.9924  157.8412 N.ar    1  UNL1       -0.2915
     37 C         142.8991  137.8927  159.1508 C.3     1  UNL1        0.1402
     38 C         142.0140  138.4701  160.2154 C.3     1  UNL1        0.1335
     39 O         141.3663  138.9740  161.4710 O.3     1  UNL1       -0.3806
     40 H         141.9647  138.8350  162.2217 H       1  UNL1        0.2108
@<TRIPOS>BOND
     1    25    26    2
     2    26    27   ar
     3    27    28   ar
     4    28    29   ar
     5    29    30   ar
     6    30    31   ar
     7    31    32   ar
     8    32    33    1
     9    32    34   ar
    10    34    35   ar
    11    35    36   ar
    12    36    37    1
    13    37    38    1
    14    38    39    1
    15    38    24    1
    16    24     1    1
    17     1     2    1
    18     2     3    1
    19     3     4    1
    20     4     9    1
    21     9    11    1
    22    11    12    1
    23    12    13   ar
    24    13    14    1
    25    13    15   ar
    26    15    16   ar
    27    16    17   ar
    28    17    18   ar
    29    18    19    1
    30    17    20    1
    31    20    21    1
    32    21    22    1
    33    22    23    1
    34     4     5    1
    35     5     6    1
    36     4     7    1
    37     7     8    1
    38    36    26   ar
    39     6     1    1
    40    35    29   ar
    41     8     1    1
    42    38    34    1
    43    18    12   ar
    44    23    16    1
    45    39    40    1
    46     9    10    1
@<TRIPOS>MOLECULE
*****
 40 46 0 0 0
SMALL
GASTEIGER

@<TRIPOS>ATOM
      1 C         137.8789  140.7709  161.8774 C.3     1  UNL1        0.0955
      2 C         138.0118  142.1682  161.3481 C.3     1  UNL1        0.0287
      3 C         137.9855  143.3335  162.2923 C.3     1  UNL1        0.0193
      4 C         137.8264  143.1016  163.7657 C.3     1  UNL1        0.0700
      5 C         137.6935  141.7044  164.2949 C.3     1  UNL1        0.0193
      6 C         137.7198  140.5390  163.3508 C.3     1  UNL1        0.0287
      7 C         137.8351  142.4314  163.2873 C.3     1  UNL1        0.1562
      8 O         137.8589  141.3778  162.4336 O.3     1  UNL1       -0.3571
      9 N         137.8001  144.2669  164.7098 N.3     1  UNL1       -0.2938
     10 H         137.1768  144.0113  165.4757 H       1  UNL1        0.1235
     11 C         139.0738  144.7561  165.3329 C.3     1  UNL1        0.0974
     12 C         140.3691  144.0596  165.0375 C.ar    1  UNL1        0.0180
     13 C         140.8638  142.9771  165.9505 C.ar    1  UNL1        0.0590
     14 CL        140.0633  142.5911  167.1589 Cl      1  UNL1       -0.0824
     15 C         142.1590  142.2806  165.6551 C.ar    1  UNL1        0.0512
     16 C         142.9596  142.6665  164.4467 C.ar    1  UNL1        0.1741
     17 C         142.4649  143.7490  163.5337 C.ar    1  UNL1        0.1826
     18 C         141.1696  144.4455  163.8291 C.ar    1  UNL1        0.0927
     19 CL        140.6750  145.5279  162.9161 Cl      1  UNL1       -0.0792
     20 O         143.2653  144.1350  162.3254 O.3     1  UNL1       -0.4675
     21 C         144.5606  143.4384  162.0300 C.3     1  UNL1        0.2527
     22 C         145.0553  142.3560  162.9429 C.3     1  UNL1        0.2526
     23 O         144.2548  141.9700  164.1514 O.3     1  UNL1       -0.4683
     24 C         137.9052  139.6056  160.9333 C.3     1  UNL1        0.0604
     25 O         138.2261  140.3164  155.8663 O.2     1  UNL1       -0.2670
     26 C         139.4657  139.7062  156.4502 C.ar    1  UNL1        0.2611
     27 C         140.6276  139.3732  155.5620 C.ar    1  UNL1        0.0623
     28 C         141.8673  138.7629  156.1458 C.ar    1  UNL1        0.0254
     29 C         141.9450  138.4857  157.6179 C.ar    1  UNL1        0.0972
     30 N         143.0409  137.8912  158.4641 N.ar    1  UNL1       -0.2400
     31 C         142.9732  137.6724  159.9465 C.ar    1  UNL1        0.1282
     32 C         141.7381  138.0572  160.7057 C.ar    1  UNL1        0.1588
     33 F         141.6704  137.8384  162.1881 F       1  UNL1       -0.2027
     34 C         140.5707  138.6607  159.9826 C.ar    1  UNL1        0.0500
     35 C         140.7830  138.8187  158.5061 C.ar    1  UNL1        0.0806
     36 N         139.5434  139.4289  157.9222 N.ar    1  UNL1       -0.2915
     37 C         138.5650  139.6481  159.0379 C.3     1  UNL1        0.1402
     38 C         139.1999  139.1734  160.3113 C.3     1  UNL1        0.1335
     39 O         139.5641  138.7889  161.7146 O.3     1  UNL1       -0.3806
     40 H         138.8256  138.9957  162.3086 H       1  UNL1        0.2108
@<TRIPOS>BOND
     1    25    26    2
     2    26    27   ar
     3    27    28   ar
     4    28    29   ar
     5    29    30   ar
     6    30    31   ar
     7    31    32   ar
     8    32    33    1
     9    32    34   ar
    10    34    35   ar
    11    35    36   ar
    12    36    37    1
    13    37    38    1
    14    38    39    1
    15    38    24    1
    16    24     1    1
    17     1     2    1
    18     2     3    1
    19     3     4    1
    20     4     9    1
    21     9    11    1
    22    11    12    1
    23    12    13   ar
    24    13    14    1
    25    13    15   ar
    26    15    16   ar
    27    16    17   ar
    28    17    18   ar
    29    18    19    1
    30    17    20    1
    31    20    21    1
    32    21    22    1
    33    22    23    1
    34     4     5    1
    35     5     6    1
    36     4     7    1
    37     7     8    1
    38    36    26   ar
    39     6     1    1
    40    35    29   ar
    41     8     1    1
    42    38    34    1
    43    18    12   ar
    44    23    16    1
    45    39    40    1
    46     9    10    1
