@<TRIPOS>MOLECULE
*****
 28 30 0 0 0
SMALL
GASTEIGER

@<TRIPOS>ATOM
      1 C         141.0013  142.0744  166.0466 C.ar    1  UNL1        0.0040
      2 C         140.2106  142.4207  167.2733 C.ar    1  UNL1        0.0016
      3 C         140.9164  142.6917  168.5688 C.ar    1  UNL1        0.0712
      4 C         142.4129  142.6163  168.6376 C.ar    1  UNL1        0.0038
      5 C         143.2036  142.2699  167.4110 C.ar    1  UNL1       -0.0003
      6 C         142.4978  141.9989  166.1155 C.ar    1  UNL1       -0.0019
      7 C         140.1257  143.0381  169.7955 C.3     1  UNL1        0.4186
      8 F         139.3350  143.3846  171.0222 F       1  UNL1       -0.1659
      9 F         140.8242  144.3633  169.8715 F       1  UNL1       -0.1659
     10 F         139.4271  141.7129  169.7196 F       1  UNL1       -0.1659
     11 C         143.2886  141.6525  164.8887 C.2     1  UNL1        0.0044
     12 C         143.8317  142.7432  164.0138 C.2     1  UNL1        0.0579
     13 C         144.6224  142.3968  162.7871 C.2     1  UNL1        0.2492
     14 O         145.9558  141.7226  162.9198 O.2     1  UNL1       -0.2699
     15 N         144.0797  142.7246  161.4277 N.am    1  UNL1       -0.2760
     16 C         142.7464  143.3987  161.2949 C.3     1  UNL1        0.0950
     17 C         142.2037  143.7265  159.9355 C.3     1  UNL1        0.0378
     18 C         142.9944  143.3802  158.7088 C.3     1  UNL1        0.0833
     19 CL        142.4517  143.7080  157.3494 Cl      1  UNL1       -0.1149
     20 C         144.3278  142.7060  158.8415 C.3     1  UNL1        0.0378
     21 C         144.8705  142.3782  160.2009 C.3     1  UNL1        0.0950
     22 C         140.2955  141.8034  164.7510 C.3     1  UNL1        0.1776
     23 C         139.7409  146.2663  161.9842 C.3     1  UNL1        0.0776
     24 C         139.4339  144.9870  162.7046 C.ar    1  UNL1        0.1838
     25 N         138.0766  144.3687  162.8641 N.ar    1  UNL1       -0.1123
     26 N         138.2341  143.1009  163.6501 N.ar    1  UNL1       -0.0451
     27 N         139.6888  142.9355  163.9764 N.ar    1  UNL1       -0.1467
     28 N         140.4303  144.1012  163.3921 N.ar    1  UNL1       -0.1339
@<TRIPOS>BOND
     1    23    24    1
     2    24    25   ar
     3    25    26   ar
     4    26    27   ar
     5    27    22    1
     6    22     1    1
     7     1     2   ar
     8     2     3   ar
     9     3     7    1
    10     7     8    1
    11     7     9    1
    12     7    10    1
    13     3     4   ar
    14     4     5   ar
    15     5     6   ar
    16     6    11    1
    17    11    12    2
    18    12    13    1
    19    13    14    2
    20    13    15   am
    21    15    16    1
    22    16    17    1
    23    17    18    1
    24    18    19    1
    25    18    20    1
    26    20    21    1
    27    27    28   ar
    28    28    24   ar
    29     6     1   ar
    30    21    15    1
@<TRIPOS>MOLECULE
*****
 28 30 0 0 0
SMALL
GASTEIGER

@<TRIPOS>ATOM
      1 C         138.0307  140.5179  162.6775 C.ar    1  UNL1        0.0040
      2 C         138.2399  140.3725  161.1993 C.ar    1  UNL1        0.0016
      3 C         138.9148  139.1489  160.6542 C.ar    1  UNL1        0.0712
      4 C         139.3804  138.0706  161.5872 C.ar    1  UNL1        0.0038
      5 C         139.1712  138.2160  163.0654 C.ar    1  UNL1       -0.0003
      6 C         138.4964  139.4396  163.6105 C.ar    1  UNL1       -0.0019
      7 C         139.1240  139.0035  159.1759 C.3     1  UNL1        0.4186
      8 F         139.3333  138.8580  157.6978 F       1  UNL1       -0.1659
      9 F         140.2284  138.0205  159.4290 F       1  UNL1       -0.1659
     10 F         138.0197  139.9865  158.9229 F       1  UNL1       -0.1659
     11 C         138.2871  139.5850  165.0888 C.2     1  UNL1        0.0044
     12 C         139.4687  139.6936  166.0064 C.2     1  UNL1        0.0579
     13 C         139.2595  139.8391  167.4846 C.2     1  UNL1        0.2492
     14 O         138.1206  139.1288  168.1543 O.2     1  UNL1       -0.2699
     15 N         140.1892  140.6947  168.2930 N.am    1  UNL1       -0.2760
     16 C         141.3281  141.4049  167.6233 C.3     1  UNL1        0.0950
     17 C         142.2578  142.2605  168.4318 C.3     1  UNL1        0.0378
     18 C         142.0486  142.4059  169.9100 C.3     1  UNL1        0.0833
     19 CL        142.9783  143.2615  170.7184 Cl      1  UNL1       -0.1149
     20 C         140.9097  141.6956  170.5798 C.3     1  UNL1        0.0378
     21 C         139.9800  140.8400  169.7713 C.3     1  UNL1        0.0950
     22 C         137.3559  141.7416  163.2228 C.3     1  UNL1        0.1776
     23 C         139.6082  146.2720  161.7119 C.3     1  UNL1        0.0776
     24 C         139.1227  145.1332  162.5588 C.ar    1  UNL1        0.1838
     25 N         139.3035  144.9976  164.0417 N.ar    1  UNL1       -0.1123
     26 N         138.6636  143.7106  164.4709 N.ar    1  UNL1       -0.0451
     27 N         138.0874  143.0508  163.2533 N.ar    1  UNL1       -0.1467
     28 N         138.3711  143.9300  162.0716 N.ar    1  UNL1       -0.1339
@<TRIPOS>BOND
     1    23    24    1
     2    24    25   ar
     3    25    26   ar
     4    26    27   ar
     5    27    22    1
     6    22     1    1
     7     1     2   ar
     8     2     3   ar
     9     3     7    1
    10     7     8    1
    11     7     9    1
    12     7    10    1
    13     3     4   ar
    14     4     5   ar
    15     5     6   ar
    16     6    11    1
    17    11    12    2
    18    12    13    1
    19    13    14    2
    20    13    15   am
    21    15    16    1
    22    16    17    1
    23    17    18    1
    24    18    19    1
    25    18    20    1
    26    20    21    1
    27    27    28   ar
    28    28    24   ar
    29     6     1   ar
    30    21    15    1
@<TRIPOS>MOLECULE
*****
 28 30 0 0 0
SMALL
GASTEIGER

@<TRIPOS>ATOM
      1 C         140.9910  142.5622  166.2180 C.ar    1  UNL1        0.0040
      2 C         140.2106  142.9271  167.4460 C.ar    1  UNL1        0.0016
      3 C         140.8604  142.8560  168.7961 C.ar    1  UNL1        0.0712
      4 C         142.2904  142.4200  168.9182 C.ar    1  UNL1        0.0038
      5 C         143.0707  142.0551  167.6902 C.ar    1  UNL1       -0.0003
      6 C         142.4210  142.1262  166.3402 C.ar    1  UNL1       -0.0019
      7 C         140.0800  143.2209  170.0241 C.3     1  UNL1        0.4186
      8 F         139.2998  143.5858  171.2521 F       1  UNL1       -0.1659
      9 F         140.7144  144.5801  170.0232 F       1  UNL1       -0.1659
     10 F         139.4457  141.8616  170.0250 F       1  UNL1       -0.1659
     11 C         143.2013  141.7613  165.1121 C.2     1  UNL1        0.0044
     12 C         143.9886  142.8105  164.3845 C.2     1  UNL1        0.0579
     13 C         144.7689  142.4457  163.1565 C.2     1  UNL1        0.2492
     14 O         146.1104  141.7875  163.2883 O.2     1  UNL1       -0.2699
     15 N         144.2078  142.7391  161.7967 N.am    1  UNL1       -0.2760
     16 C         142.8664  143.3972  161.6649 C.3     1  UNL1        0.0950
     17 C         142.3053  143.6906  160.3051 C.3     1  UNL1        0.0378
     18 C         143.0856  143.3258  159.0771 C.3     1  UNL1        0.0833
     19 CL        142.5245  143.6191  157.7172 Cl      1  UNL1       -0.1149
     20 C         144.4271  142.6675  159.2089 C.3     1  UNL1        0.0378
     21 C         144.9882  142.3742  160.5687 C.3     1  UNL1        0.0950
     22 C         140.3413  142.6333  164.8679 C.3     1  UNL1        0.1776
     23 C         138.9176  137.6358  163.9301 C.3     1  UNL1        0.0776
     24 C         138.9872  139.1332  163.8769 C.ar    1  UNL1        0.1838
     25 N         138.1427  140.0252  163.0159 N.ar    1  UNL1       -0.1123
     26 N         138.5472  141.4448  163.2823 N.ar    1  UNL1       -0.0451
     27 N         139.6416  141.4303  164.3080 N.ar    1  UNL1       -0.1467
     28 N         139.9135  140.0017  164.6754 N.ar    1  UNL1       -0.1339
@<TRIPOS>BOND
     1    23    24    1
     2    24    25   ar
     3    25    26   ar
     4    26    27   ar
     5    27    22    1
     6    22     1    1
     7     1     2   ar
     8     2     3   ar
     9     3     7    1
    10     7     8    1
    11     7     9    1
    12     7    10    1
    13     3     4   ar
    14     4     5   ar
    15     5     6   ar
    16     6    11    1
    17    11    12    2
    18    12    13    1
    19    13    14    2
    20    13    15   am
    21    15    16    1
    22    16    17    1
    23    17    18    1
    24    18    19    1
    25    18    20    1
    26    20    21    1
    27    27    28   ar
    28    28    24   ar
    29     6     1   ar
    30    21    15    1
@<TRIPOS>MOLECULE
*****
 28 30 0 0 0
SMALL
GASTEIGER

@<TRIPOS>ATOM
      1 C         140.4688  141.5126  166.0347 C.ar    1  UNL1        0.0040
      2 C         140.6371  142.0294  167.4327 C.ar    1  UNL1        0.0016
      3 C         140.0407  141.2791  168.5865 C.ar    1  UNL1        0.0712
      4 C         139.2759  140.0120  168.3423 C.ar    1  UNL1        0.0038
      5 C         139.1076  139.4952  166.9443 C.ar    1  UNL1       -0.0003
      6 C         139.7040  140.2455  165.7905 C.ar    1  UNL1       -0.0019
      7 C         140.2090  141.7959  169.9847 C.3     1  UNL1        0.4186
      8 F         140.3773  142.3126  171.3827 F       1  UNL1       -0.1659
      9 F         138.7848  141.4368  170.2888 F       1  UNL1       -0.1659
     10 F         141.6333  142.1549  169.6805 F       1  UNL1       -0.1659
     11 C         139.5357  139.7287  164.3924 C.2     1  UNL1        0.0044
     12 C         138.2550  139.9744  163.6511 C.2     1  UNL1        0.0579
     13 C         138.0867  139.4577  162.2530 C.2     1  UNL1        0.2492
     14 O         137.7452  138.0153  162.0225 O.2     1  UNL1       -0.2699
     15 N         138.2598  140.3833  161.0854 N.am    1  UNL1       -0.2760
     16 C         138.6013  141.8255  161.3158 C.3     1  UNL1        0.0950
     17 C         138.7744  142.7511  160.1481 C.3     1  UNL1        0.0378
     18 C         138.6061  142.2344  158.7501 C.3     1  UNL1        0.0833
     19 CL        138.7792  143.1599  157.5825 Cl      1  UNL1       -0.1149
     20 C         138.2645  140.7920  158.5196 C.3     1  UNL1        0.0378
     21 C         138.0914  139.8664  159.6873 C.3     1  UNL1        0.0950
     22 C         141.0653  142.2628  164.8808 C.3     1  UNL1        0.1776
     23 C         139.7413  146.3038  161.7506 C.3     1  UNL1        0.0776
     24 C         139.6631  145.1904  162.7526 C.ar    1  UNL1        0.1838
     25 N         138.4381  144.7690  163.5087 N.ar    1  UNL1       -0.1123
     26 N         138.8142  143.6210  164.3979 N.ar    1  UNL1       -0.0451
     27 N         140.2717  143.3329  164.1915 N.ar    1  UNL1       -0.1467
     28 N         140.7964  144.3029  163.1746 N.ar    1  UNL1       -0.1339
@<TRIPOS>BOND
     1    23    24    1
     2    24    25   ar
     3    25    26   ar
     4    26    27   ar
     5    27    22    1
     6    22     1    1
     7     1     2   ar
     8     2     3   ar
     9     3     7    1
    10     7     8    1
    11     7     9    1
    12     7    10    1
    13     3     4   ar
    14     4     5   ar
    15     5     6   ar
    16     6    11    1
    17    11    12    2
    18    12    13    1
    19    13    14    2
    20    13    15   am
    21    15    16    1
    22    16    17    1
    23    17    18    1
    24    18    19    1
    25    18    20    1
    26    20    21    1
    27    27    28   ar
    28    28    24   ar
    29     6     1   ar
    30    21    15    1
@<TRIPOS>MOLECULE
*****
 28 30 0 0 0
SMALL
GASTEIGER

@<TRIPOS>ATOM
      1 C         138.0032  140.3288  163.4939 C.ar    1  UNL1        0.0040
      2 C         138.0987  140.4676  164.9844 C.ar    1  UNL1        0.0016
      3 C         138.5943  139.3205  165.8142 C.ar    1  UNL1        0.0712
      4 C         138.9946  138.0347  165.1535 C.ar    1  UNL1        0.0038
      5 C         138.8991  137.8959  163.6631 C.ar    1  UNL1       -0.0003
      6 C         138.4035  139.0430  162.8333 C.ar    1  UNL1       -0.0019
      7 C         138.6898  139.4593  167.3048 C.3     1  UNL1        0.4186
      8 F         138.7852  139.5980  168.7953 F       1  UNL1       -0.1659
      9 F         137.4204  138.6752  167.4590 F       1  UNL1       -0.1659
     10 F         139.9591  140.2434  167.1506 F       1  UNL1       -0.1659
     11 C         138.3080  138.9042  161.3427 C.2     1  UNL1        0.0044
     12 C         139.3516  139.5266  160.4632 C.2     1  UNL1        0.0579
     13 C         139.2562  139.3879  158.9727 C.2     1  UNL1        0.2492
     14 O         138.0414  139.8885  158.2490 O.2     1  UNL1       -0.2699
     15 N         140.3756  138.7485  158.2058 N.am    1  UNL1       -0.2760
     16 C         141.5904  138.2479  158.9293 C.3     1  UNL1        0.0950
     17 C         142.7098  137.6086  158.1624 C.3     1  UNL1        0.0378
     18 C         142.6144  137.4698  156.6719 C.3     1  UNL1        0.0833
     19 CL        143.7338  136.8305  155.9050 Cl      1  UNL1       -0.1149
     20 C         141.3996  137.9705  155.9483 C.3     1  UNL1        0.0378
     21 C         140.2802  138.6098  156.7152 C.3     1  UNL1        0.0950
     22 C         137.5075  141.4758  162.6640 C.3     1  UNL1        0.1776
     23 C         141.4963  144.9343  162.7618 C.3     1  UNL1        0.0776
     24 C         140.1204  144.3462  162.6579 C.ar    1  UNL1        0.1838
     25 N         138.8522  145.1081  162.4109 N.ar    1  UNL1       -0.1123
     26 N         137.7190  144.1256  162.3831 N.ar    1  UNL1       -0.0451
     27 N         138.2869  142.7564  162.6130 N.ar    1  UNL1       -0.1467
     28 N         139.7710  142.8928  162.7828 N.ar    1  UNL1       -0.1339
@<TRIPOS>BOND
     1    23    24    1
     2    24    25   ar
     3    25    26   ar
     4    26    27   ar
     5    27    22    1
     6    22     1    1
     7     1     2   ar
     8     2     3   ar
     9     3     7    1
    10     7     8    1
    11     7     9    1
    12     7    10    1
    13     3     4   ar
    14     4     5   ar
    15     5     6   ar
    16     6    11    1
    17    11    12    2
    18    12    13    1
    19    13    14    2
    20    13    15   am
    21    15    16    1
    22    16    17    1
    23    17    18    1
    24    18    19    1
    25    18    20    1
    26    20    21    1
    27    27    28   ar
    28    28    24   ar
    29     6     1   ar
    30    21    15    1
@<TRIPOS>MOLECULE
*****
 28 30 0 0 0
SMALL
GASTEIGER

@<TRIPOS>ATOM
      1 C         137.9390  140.3148  163.2183 C.ar    1  UNL1        0.0040
      2 C         138.0806  140.4388  164.7064 C.ar    1  UNL1        0.0016
      3 C         138.6258  139.2927  165.5059 C.ar    1  UNL1        0.0712
      4 C         139.0295  138.0227  164.8173 C.ar    1  UNL1        0.0038
      5 C         138.8879  137.8988  163.3292 C.ar    1  UNL1       -0.0003
      6 C         138.3427  139.0448  162.5297 C.ar    1  UNL1       -0.0019
      7 C         138.7674  139.4166  166.9941 C.3     1  UNL1        0.4186
      8 F         138.9090  139.5406  168.4822 F       1  UNL1       -0.1659
      9 F         140.1270  140.0240  166.8142 F       1  UNL1       -0.1659
     10 F         137.4077  138.8093  167.1741 F       1  UNL1       -0.1659
     11 C         138.2011  138.9209  161.0415 C.2     1  UNL1        0.0044
     12 C         139.3447  139.2945  160.1456 C.2     1  UNL1        0.0579
     13 C         139.2032  139.1707  158.6575 C.2     1  UNL1        0.2492
     14 O         139.5744  137.8886  157.9729 O.2     1  UNL1       -0.2699
     15 N         138.6905  140.3288  157.8539 N.am    1  UNL1       -0.2760
     16 C         138.3193  141.6108  158.5384 C.3     1  UNL1        0.0950
     17 C         137.8065  142.7690  157.7347 C.3     1  UNL1        0.0378
     18 C         137.6650  142.6451  156.2466 C.3     1  UNL1        0.0833
     19 CL        137.1523  143.8032  155.4430 Cl      1  UNL1       -0.1149
     20 C         138.0362  141.3630  155.5620 C.3     1  UNL1        0.0378
     21 C         138.5489  140.2049  156.3657 C.3     1  UNL1        0.0950
     22 C         137.3938  141.4609  162.4187 C.3     1  UNL1        0.1776
     23 C         141.4063  144.6858  161.2438 C.3     1  UNL1        0.0776
     24 C         140.0637  144.1800  161.6815 C.ar    1  UNL1        0.1838
     25 N         138.9157  145.0217  162.1545 N.ar    1  UNL1       -0.1123
     26 N         137.7759  144.1056  162.4883 N.ar    1  UNL1       -0.0451
     27 N         138.2193  142.6977  162.2215 N.ar    1  UNL1       -0.1467
     28 N         139.6332  142.7437  161.7229 N.ar    1  UNL1       -0.1339
@<TRIPOS>BOND
     1    23    24    1
     2    24    25   ar
     3    25    26   ar
     4    26    27   ar
     5    27    22    1
     6    22     1    1
     7     1     2   ar
     8     2     3   ar
     9     3     7    1
    10     7     8    1
    11     7     9    1
    12     7    10    1
    13     3     4   ar
    14     4     5   ar
    15     5     6   ar
    16     6    11    1
    17    11    12    2
    18    12    13    1
    19    13    14    2
    20    13    15   am
    21    15    16    1
    22    16    17    1
    23    17    18    1
    24    18    19    1
    25    18    20    1
    26    20    21    1
    27    27    28   ar
    28    28    24   ar
    29     6     1   ar
    30    21    15    1
@<TRIPOS>MOLECULE
*****
 28 30 0 0 0
SMALL
GASTEIGER

@<TRIPOS>ATOM
      1 C         140.9976  142.3914  166.5695 C.ar    1  UNL1        0.0040
      2 C         140.1709  142.8903  167.7174 C.ar    1  UNL1        0.0016
      3 C         140.7278  142.8639  169.1099 C.ar    1  UNL1        0.0712
      4 C         142.1114  142.3386  169.3545 C.ar    1  UNL1        0.0038
      5 C         142.9381  141.8398  168.2066 C.ar    1  UNL1       -0.0003
      6 C         142.3812  141.8662  166.8141 C.ar    1  UNL1       -0.0019
      7 C         139.9011  143.3627  170.2579 C.3     1  UNL1        0.4186
      8 F         139.0745  143.8615  171.4058 F       1  UNL1       -0.1659
      9 F         139.2984  141.9984  170.4166 F       1  UNL1       -0.1659
     10 F         140.5039  144.7270  170.0991 F       1  UNL1       -0.1659
     11 C         143.2078  141.3674  165.6661 C.2     1  UNL1        0.0044
     12 C         143.0356  139.9612  165.1731 C.2     1  UNL1        0.0579
     13 C         143.8622  139.4624  164.0251 C.2     1  UNL1        0.2492
     14 O         145.3353  139.2414  164.2019 O.2     1  UNL1       -0.2699
     15 N         143.2157  139.1844  162.7004 N.am    1  UNL1       -0.2760
     16 C         141.7427  139.4054  162.5236 C.3     1  UNL1        0.0950
     17 C         141.0963  139.1274  161.1989 C.3     1  UNL1        0.0378
     18 C         141.9229  138.6286  160.0510 C.3     1  UNL1        0.0833
     19 CL        141.2765  138.3506  158.7262 Cl      1  UNL1       -0.1149
     20 C         143.3960  138.4076  160.2277 C.3     1  UNL1        0.0378
     21 C         144.0424  138.6855  161.5524 C.3     1  UNL1        0.0950
     22 C         140.4407  142.4178  165.1769 C.3     1  UNL1        0.1776
     23 C         139.6860  146.2830  161.6595 C.3     1  UNL1        0.0776
     24 C         140.3217  145.3904  162.6838 C.ar    1  UNL1        0.1838
     25 N         141.7166  145.5178  163.2204 N.ar    1  UNL1       -0.1123
     26 N         141.9310  144.4197  164.2196 N.ar    1  UNL1       -0.0451
     27 N         140.6685  143.6137  164.3006 N.ar    1  UNL1       -0.1467
     28 N         139.6739  144.2137  163.3515 N.ar    1  UNL1       -0.1339
@<TRIPOS>BOND
     1    23    24    1
     2    24    25   ar
     3    25    26   ar
     4    26    27   ar
     5    27    22    1
     6    22     1    1
     7     1     2   ar
     8     2     3   ar
     9     3     7    1
    10     7     8    1
    11     7     9    1
    12     7    10    1
    13     3     4   ar
    14     4     5   ar
    15     5     6   ar
    16     6    11    1
    17    11    12    2
    18    12    13    1
    19    13    14    2
    20    13    15   am
    21    15    16    1
    22    16    17    1
    23    17    18    1
    24    18    19    1
    25    18    20    1
    26    20    21    1
    27    27    28   ar
    28    28    24   ar
    29     6     1   ar
    30    21    15    1
@<TRIPOS>MOLECULE
*****
 28 30 0 0 0
SMALL
GASTEIGER

@<TRIPOS>ATOM
      1 C         139.3406  140.3448  165.9994 C.ar    1  UNL1        0.0040
      2 C         139.3600  139.8237  167.4058 C.ar    1  UNL1        0.0016
      3 C         139.8306  140.7040  168.5254 C.ar    1  UNL1        0.0712
      4 C         140.2819  142.1055  168.2385 C.ar    1  UNL1        0.0038
      5 C         140.2625  142.6266  166.8321 C.ar    1  UNL1       -0.0003
      6 C         139.7918  141.7462  165.7125 C.ar    1  UNL1       -0.0019
      7 C         139.8500  140.1830  169.9319 C.3     1  UNL1        0.4186
      8 F         139.8695  139.6619  171.3383 F       1  UNL1       -0.1659
      9 F         141.0950  139.4042  169.6261 F       1  UNL1       -0.1659
     10 F         138.6051  140.9618  170.2376 F       1  UNL1       -0.1659
     11 C         139.7724  142.2673  164.3060 C.2     1  UNL1        0.0044
     12 C         138.4734  142.6700  163.6733 C.2     1  UNL1        0.0579
     13 C         138.4539  143.1910  162.2669 C.2     1  UNL1        0.2492
     14 O         138.2612  144.6568  162.0126 O.2     1  UNL1       -0.2699
     15 N         138.6272  142.2464  161.1146 N.am    1  UNL1       -0.2760
     16 C         138.8199  140.7807  161.3688 C.3     1  UNL1        0.0950
     17 C         138.9931  139.8361  160.2165 C.3     1  UNL1        0.0378
     18 C         138.9736  140.3572  158.8101 C.3     1  UNL1        0.0833
     19 CL        139.1469  139.4126  157.6578 Cl      1  UNL1       -0.1149
     20 C         138.7809  141.8229  158.5558 C.3     1  UNL1        0.0378
     21 C         138.6077  142.7675  159.7081 C.3     1  UNL1        0.0950
     22 C         138.8699  139.4644  164.8798 C.3     1  UNL1        0.1776
     23 C         143.3511  138.2294  162.3749 C.3     1  UNL1        0.0776
     24 C         141.9278  138.2051  162.8478 C.ar    1  UNL1        0.1838
     25 N         140.8802  137.2119  162.4404 N.ar    1  UNL1       -0.1123
     26 N         139.6072  137.5627  163.1521 N.ar    1  UNL1       -0.0451
     27 N         139.8680  138.7728  163.9992 N.ar    1  UNL1       -0.1467
     28 N         141.3022  139.1698  163.8112 N.ar    1  UNL1       -0.1339
@<TRIPOS>BOND
     1    23    24    1
     2    24    25   ar
     3    25    26   ar
     4    26    27   ar
     5    27    22    1
     6    22     1    1
     7     1     2   ar
     8     2     3   ar
     9     3     7    1
    10     7     8    1
    11     7     9    1
    12     7    10    1
    13     3     4   ar
    14     4     5   ar
    15     5     6   ar
    16     6    11    1
    17    11    12    2
    18    12    13    1
    19    13    14    2
    20    13    15   am
    21    15    16    1
    22    16    17    1
    23    17    18    1
    24    18    19    1
    25    18    20    1
    26    20    21    1
    27    27    28   ar
    28    28    24   ar
    29     6     1   ar
    30    21    15    1
@<TRIPOS>MOLECULE
*****
 28 30 0 0 0
SMALL
GASTEIGER

@<TRIPOS>ATOM
      1 C         142.8626  141.7348  166.1379 C.ar    1  UNL1        0.0040
      2 C         143.1011  142.5692  167.3613 C.ar    1  UNL1        0.0016
      3 C         143.0303  141.9423  168.7222 C.ar    1  UNL1        0.0712
      4 C         142.7209  140.4810  168.8596 C.ar    1  UNL1        0.0038
      5 C         142.4823  139.6466  167.6362 C.ar    1  UNL1       -0.0003
      6 C         142.5532  140.2735  166.2754 C.ar    1  UNL1       -0.0019
      7 C         143.2689  142.7768  169.9457 C.3     1  UNL1        0.4186
      8 F         143.5076  143.6111  171.1691 F       1  UNL1       -0.1659
      9 F         144.6318  142.1682  170.0949 F       1  UNL1       -0.1659
     10 F         141.9061  143.3853  169.7965 F       1  UNL1       -0.1659
     11 C         142.3146  139.4391  165.0519 C.2     1  UNL1        0.0044
     12 C         140.9130  139.1583  164.5972 C.2     1  UNL1        0.0579
     13 C         140.6743  138.3240  163.3737 C.2     1  UNL1        0.2492
     14 O         141.0320  136.8672  163.3779 O.2     1  UNL1       -0.2699
     15 N         140.0781  138.9463  162.1461 N.am    1  UNL1       -0.2760
     16 C         139.7204  140.4030  162.1419 C.3     1  UNL1        0.0950
     17 C         139.1241  141.0253  160.9142 C.3     1  UNL1        0.0378
     18 C         138.8855  140.1909  159.6908 C.3     1  UNL1        0.0833
     19 CL        138.2892  140.8133  158.4631 Cl      1  UNL1       -0.1149
     20 C         139.2431  138.7342  159.6949 C.3     1  UNL1        0.0378
     21 C         139.8394  138.1118  160.9226 C.3     1  UNL1        0.0950
     22 C         142.9334  142.3617  164.7770 C.3     1  UNL1        0.1776
     23 C         137.9535  143.9521  164.0336 C.3     1  UNL1        0.0776
     24 C         139.4229  143.7243  163.8360 C.ar    1  UNL1        0.1838
     25 N         140.2415  144.2059  162.6750 N.ar    1  UNL1       -0.1123
     26 N         141.6561  143.7540  162.8862 N.ar    1  UNL1       -0.0451
     27 N         141.7119  142.9932  164.1777 N.ar    1  UNL1       -0.1467
     28 N         140.3316  142.9748  164.7647 N.ar    1  UNL1       -0.1339
@<TRIPOS>BOND
     1    23    24    1
     2    24    25   ar
     3    25    26   ar
     4    26    27   ar
     5    27    22    1
     6    22     1    1
     7     1     2   ar
     8     2     3   ar
     9     3     7    1
    10     7     8    1
    11     7     9    1
    12     7    10    1
    13     3     4   ar
    14     4     5   ar
    15     5     6   ar
    16     6    11    1
    17    11    12    2
    18    12    13    1
    19    13    14    2
    20    13    15   am
    21    15    16    1
    22    16    17    1
    23    17    18    1
    24    18    19    1
    25    18    20    1
    26    20    21    1
    27    27    28   ar
    28    28    24   ar
    29     6     1   ar
    30    21    15    1
