@<TRIPOS>MOLECULE
*****
 23 25 0 0 0
SMALL
GASTEIGER

@<TRIPOS>ATOM
      1 N         139.4152  145.0574  162.2448 N.ar    1  UNL1       -0.2432
      2 C         140.1343  144.2354  163.2730 C.ar    1  UNL1        0.0971
      3 C         139.1062  143.4968  164.0777 C.ar    1  UNL1        0.0396
      4 C         137.7518  143.8623  163.5468 C.ar    1  UNL1        0.1216
      5 N         137.9427  144.8268  162.4140 N.ar    1  UNL1       -0.1673
      6 C         139.3838  142.5575  165.2138 C.ar    1  UNL1        0.0030
      7 C         140.1449  143.0367  166.4143 C.ar    1  UNL1        0.0010
      8 C         140.4225  142.0975  167.5503 C.ar    1  UNL1        0.0113
      9 C         139.9390  140.6790  167.4860 C.ar    1  UNL1        0.0616
     10 CL        140.2166  139.7397  168.6221 Cl      1  UNL1       -0.0823
     11 C         139.1779  140.1998  166.2855 C.ar    1  UNL1        0.0820
     12 C         138.9003  141.1390  165.1495 C.ar    1  UNL1        0.0048
     13 C         138.6944  138.7813  166.2212 C.3     1  UNL1        0.4194
     14 F         138.2109  137.3628  166.1568 F       1  UNL1       -0.1658
     15 F         139.9629  138.3803  165.5284 F       1  UNL1       -0.1658
     16 F         137.4258  139.1823  166.9140 F       1  UNL1       -0.1658
     17 C         140.0561  145.9528  161.2262 C.3     1  UNL1        0.1746
     18 C         143.5122  143.2633  158.2761 C.3     1  UNL1        0.1537
     19 N         142.3542  144.1223  158.6897 N.ar    1  UNL1       -0.2476
     20 C         141.3604  144.7658  157.7686 C.ar    1  UNL1        0.0964
     21 C         140.3787  145.5298  158.6067 C.ar    1  UNL1        0.0387
     22 C         140.7656  145.3586  160.0457 C.ar    1  UNL1        0.1047
     23 N         141.9865  144.4887  160.0971 N.ar    1  UNL1       -0.1716
@<TRIPOS>BOND
     1    18    19    1
     2    19    20   ar
     3    20    21   ar
     4    21    22   ar
     5    22    17    1
     6    17     1    1
     7     1     2   ar
     8     2     3   ar
     9     3     6    1
    10     6     7   ar
    11     7     8   ar
    12     8     9   ar
    13     9    10    1
    14     9    11   ar
    15    11    13    1
    16    13    14    1
    17    13    15    1
    18    13    16    1
    19    11    12   ar
    20     3     4   ar
    21     4     5   ar
    22    22    23   ar
    23    23    19   ar
    24     5     1   ar
    25    12     6   ar
@<TRIPOS>MOLECULE
*****
 23 25 0 0 0
SMALL
GASTEIGER

@<TRIPOS>ATOM
      1 N         139.4159  145.0239  162.3673 N.ar    1  UNL1       -0.2432
      2 C         140.1642  144.2879  163.4389 C.ar    1  UNL1        0.0971
      3 C         139.1693  143.5102  164.2484 C.ar    1  UNL1        0.0396
      4 C         137.8060  143.7656  163.6771 C.ar    1  UNL1        0.1216
      5 N         137.9584  144.7010  162.5145 N.ar    1  UNL1       -0.1673
      6 C         139.4826  142.6315  165.4230 C.ar    1  UNL1        0.0030
      7 C         139.0762  141.1877  165.4091 C.ar    1  UNL1        0.0010
      8 C         139.3895  140.3090  166.5837 C.ar    1  UNL1        0.0113
      9 C         140.1093  140.8741  167.7722 C.ar    1  UNL1        0.0616
     10 CL        140.4226  139.9954  168.9469 Cl      1  UNL1       -0.0823
     11 C         140.5157  142.3179  167.7862 C.ar    1  UNL1        0.0820
     12 C         140.2023  143.1966  166.6116 C.ar    1  UNL1        0.0048
     13 C         141.2354  142.8831  168.9747 C.3     1  UNL1        0.4194
     14 F         141.9551  143.4482  170.1633 F       1  UNL1       -0.1658
     15 F         142.5492  142.4962  168.3631 F       1  UNL1       -0.1658
     16 F         139.9215  143.2699  169.5864 F       1  UNL1       -0.1658
     17 C         140.0191  145.9245  161.3304 C.3     1  UNL1        0.1746
     18 C         143.4939  143.2959  158.3476 C.3     1  UNL1        0.1537
     19 N         142.3204  144.1278  158.7728 N.ar    1  UNL1       -0.2476
     20 C         141.2929  144.7333  157.8630 C.ar    1  UNL1        0.0964
     21 C         140.3058  145.4800  158.7103 C.ar    1  UNL1        0.0387
     22 C         140.7231  145.3361  160.1438 C.ar    1  UNL1        0.1047
     23 N         141.9682  144.5004  160.1825 N.ar    1  UNL1       -0.1716
@<TRIPOS>BOND
     1    18    19    1
     2    19    20   ar
     3    20    21   ar
     4    21    22   ar
     5    22    17    1
     6    17     1    1
     7     1     2   ar
     8     2     3   ar
     9     3     6    1
    10     6     7   ar
    11     7     8   ar
    12     8     9   ar
    13     9    10    1
    14     9    11   ar
    15    11    13    1
    16    13    14    1
    17    13    15    1
    18    13    16    1
    19    11    12   ar
    20     3     4   ar
    21     4     5   ar
    22    22    23   ar
    23    23    19   ar
    24     5     1   ar
    25    12     6   ar
@<TRIPOS>MOLECULE
*****
 23 25 0 0 0
SMALL
GASTEIGER

@<TRIPOS>ATOM
      1 N         144.1710  142.2997  161.9892 N.ar    1  UNL1       -0.2432
      2 C         143.2571  142.0355  163.1489 C.ar    1  UNL1        0.0971
      3 C         144.0605  141.3785  164.2319 C.ar    1  UNL1        0.0396
      4 C         145.4710  141.2366  163.7415 C.ar    1  UNL1        0.1216
      5 N         145.5393  141.8060  162.3554 N.ar    1  UNL1       -0.1673
      6 C         143.5441  140.9403  165.5703 C.ar    1  UNL1        0.0030
      7 C         143.3250  139.4828  165.8492 C.ar    1  UNL1        0.0010
      8 C         142.8087  139.0447  167.1876 C.ar    1  UNL1        0.0113
      9 C         142.5114  140.0640  168.2471 C.ar    1  UNL1        0.0616
     10 CL        141.9951  139.6257  169.5856 Cl      1  UNL1       -0.0823
     11 C         142.7306  141.5214  167.9683 C.ar    1  UNL1        0.0820
     12 C         143.2469  141.9596  166.6299 C.ar    1  UNL1        0.0048
     13 C         142.4333  142.5407  169.0279 C.3     1  UNL1        0.4194
     14 F         142.1361  143.5600  170.0875 F       1  UNL1       -0.1658
     15 F         141.0036  142.5923  168.5772 F       1  UNL1       -0.1658
     16 F         143.8631  142.4891  169.4786 F       1  UNL1       -0.1658
     17 C         143.7846  142.9445  160.6911 C.3     1  UNL1        0.1746
     18 C         139.7652  146.2625  161.5373 C.3     1  UNL1        0.1537
     19 N         140.6189  145.1748  160.9560 N.ar    1  UNL1       -0.2476
     20 C         140.2573  144.2946  159.7965 C.ar    1  UNL1        0.0964
     21 C         141.3990  143.3520  159.5562 C.ar    1  UNL1        0.0387
     22 C         142.4665  143.6496  160.5671 C.ar    1  UNL1        0.1047
     23 N         141.9844  144.7761  161.4323 N.ar    1  UNL1       -0.1716
@<TRIPOS>BOND
     1    18    19    1
     2    19    20   ar
     3    20    21   ar
     4    21    22   ar
     5    22    17    1
     6    17     1    1
     7     1     2   ar
     8     2     3   ar
     9     3     6    1
    10     6     7   ar
    11     7     8   ar
    12     8     9   ar
    13     9    10    1
    14     9    11   ar
    15    11    13    1
    16    13    14    1
    17    13    15    1
    18    13    16    1
    19    11    12   ar
    20     3     4   ar
    21     4     5   ar
    22    22    23   ar
    23    23    19   ar
    24     5     1   ar
    25    12     6   ar
@<TRIPOS>MOLECULE
*****
 23 25 0 0 0
SMALL
GASTEIGER

@<TRIPOS>ATOM
      1 N         138.8466  141.6952  160.1218 N.ar    1  UNL1       -0.2432
      2 C         139.2252  140.8756  161.3196 C.ar    1  UNL1        0.0971
      3 C         138.8159  141.6331  162.5479 C.ar    1  UNL1        0.0396
      4 C         138.1843  142.9210  162.1091 C.ar    1  UNL1        0.1216
      5 N         138.2033  142.9594  160.6097 N.ar    1  UNL1       -0.1673
      6 C         139.0049  141.1820  163.9659 C.ar    1  UNL1        0.0030
      7 C         139.7265  142.0620  164.9430 C.ar    1  UNL1        0.0010
      8 C         139.9155  141.6109  166.3610 C.ar    1  UNL1        0.0113
      9 C         139.3830  140.2797  166.8019 C.ar    1  UNL1        0.0616
     10 CL        139.5720  139.8286  168.2199 Cl      1  UNL1       -0.0823
     11 C         138.6614  139.3997  165.8248 C.ar    1  UNL1        0.0820
     12 C         138.4724  139.8508  164.4068 C.ar    1  UNL1        0.0048
     13 C         138.1288  138.0685  166.2656 C.3     1  UNL1        0.4194
     14 F         137.5963  136.7373  166.7065 F       1  UNL1       -0.1658
     15 F         139.1252  137.3774  165.3826 F       1  UNL1       -0.1658
     16 F         137.1324  138.7596  167.1486 F       1  UNL1       -0.1658
     17 C         139.0718  141.3172  158.6878 C.3     1  UNL1        0.1746
     18 C         134.8133  140.2912  155.7394 C.3     1  UNL1        0.1537
     19 N         136.0016  140.9851  156.3365 N.ar    1  UNL1       -0.2476
     20 C         136.4916  142.3577  155.9814 C.ar    1  UNL1        0.0964
     21 C         137.7013  142.6491  156.8190 C.ar    1  UNL1        0.0387
     22 C         137.9590  141.4567  157.6917 C.ar    1  UNL1        0.1047
     23 N         136.9086  140.4283  157.3936 N.ar    1  UNL1       -0.1716
@<TRIPOS>BOND
     1    18    19    1
     2    19    20   ar
     3    20    21   ar
     4    21    22   ar
     5    22    17    1
     6    17     1    1
     7     1     2   ar
     8     2     3   ar
     9     3     6    1
    10     6     7   ar
    11     7     8   ar
    12     8     9   ar
    13     9    10    1
    14     9    11   ar
    15    11    13    1
    16    13    14    1
    17    13    15    1
    18    13    16    1
    19    11    12   ar
    20     3     4   ar
    21     4     5   ar
    22    22    23   ar
    23    23    19   ar
    24     5     1   ar
    25    12     6   ar
@<TRIPOS>MOLECULE
*****
 23 25 0 0 0
SMALL
GASTEIGER

@<TRIPOS>ATOM
      1 N         139.7838  138.4226  162.7758 N.ar    1  UNL1       -0.2432
      2 C         140.3058  139.5454  163.6224 C.ar    1  UNL1        0.0971
      3 C         139.6444  139.4592  164.9659 C.ar    1  UNL1        0.0396
      4 C         138.7135  138.2830  164.9496 C.ar    1  UNL1        0.1216
      5 N         138.7997  137.6424  163.5960 N.ar    1  UNL1       -0.1673
      6 C         139.8735  140.3863  166.1227 C.ar    1  UNL1        0.0030
      7 C         140.2098  141.8268  165.8742 C.ar    1  UNL1        0.0010
      8 C         140.4389  142.7538  167.0309 C.ar    1  UNL1        0.0113
      9 C         140.3317  142.2403  168.4362 C.ar    1  UNL1        0.0616
     10 CL        140.5608  143.1674  169.5930 Cl      1  UNL1       -0.0823
     11 C         139.9954  140.7998  168.6848 C.ar    1  UNL1        0.0820
     12 C         139.7663  139.8728  167.5280 C.ar    1  UNL1        0.0048
     13 C         139.8882  140.2863  170.0900 C.3     1  UNL1        0.4194
     14 F         139.7810  139.7728  171.4953 F       1  UNL1       -0.1658
     15 F         141.3375  139.9009  170.0598 F       1  UNL1       -0.1658
     16 F         138.4389  140.6716  170.1203 F       1  UNL1       -0.1658
     17 C         140.1769  138.1312  161.3578 C.3     1  UNL1        0.1746
     18 C         143.9667  140.5939  158.6277 C.3     1  UNL1        0.1537
     19 N         143.2651  139.6877  159.5955 N.ar    1  UNL1       -0.2476
     20 C         143.9243  138.7302  160.5435 C.ar    1  UNL1        0.0964
     21 C         142.8477  138.0307  161.3190 C.ar    1  UNL1        0.0387
     22 C         141.5231  138.5557  160.8504 C.ar    1  UNL1        0.1047
     23 N         141.7810  139.5798  159.7852 N.ar    1  UNL1       -0.1716
@<TRIPOS>BOND
     1    18    19    1
     2    19    20   ar
     3    20    21   ar
     4    21    22   ar
     5    22    17    1
     6    17     1    1
     7     1     2   ar
     8     2     3   ar
     9     3     6    1
    10     6     7   ar
    11     7     8   ar
    12     8     9   ar
    13     9    10    1
    14     9    11   ar
    15    11    13    1
    16    13    14    1
    17    13    15    1
    18    13    16    1
    19    11    12   ar
    20     3     4   ar
    21     4     5   ar
    22    22    23   ar
    23    23    19   ar
    24     5     1   ar
    25    12     6   ar
@<TRIPOS>MOLECULE
*****
 23 25 0 0 0
SMALL
GASTEIGER

@<TRIPOS>ATOM
      1 N         138.9744  142.3837  160.5806 N.ar    1  UNL1       -0.2432
      2 C         139.5351  141.5881  161.7219 C.ar    1  UNL1        0.0971
      3 C         138.7635  141.9437  162.9581 C.ar    1  UNL1        0.0396
      4 C         137.7260  142.9593  162.5809 C.ar    1  UNL1        0.1216
      5 N         137.8563  143.2312  161.1115 N.ar    1  UNL1       -0.1673
      6 C         138.9898  141.3825  164.3307 C.ar    1  UNL1        0.0030
      7 C         139.7797  142.1627  165.3392 C.ar    1  UNL1        0.0010
      8 C         140.0059  141.6014  166.7117 C.ar    1  UNL1        0.0113
      9 C         139.4422  140.2599  167.0756 C.ar    1  UNL1        0.0616
     10 CL        139.6684  139.6986  168.4482 Cl      1  UNL1       -0.0823
     11 C         138.6523  139.4796  166.0671 C.ar    1  UNL1        0.0820
     12 C         138.4261  140.0409  164.6946 C.ar    1  UNL1        0.0048
     13 C         138.0886  138.1380  166.4310 C.3     1  UNL1        0.4194
     14 F         137.5249  136.7965  166.7950 F       1  UNL1       -0.1658
     15 F         137.1021  138.8008  167.3462 F       1  UNL1       -0.1658
     16 F         139.0751  137.4753  165.5159 F       1  UNL1       -0.1658
     17 C         139.4485  142.3397  159.1582 C.3     1  UNL1        0.1746
     18 C         139.3206  145.9420  155.2997 C.3     1  UNL1        0.1537
     19 N         139.5760  145.2703  156.6164 N.ar    1  UNL1       -0.2476
     20 C         140.2670  145.8819  157.7990 C.ar    1  UNL1        0.0964
     21 C         140.3033  144.8586  158.8950 C.ar    1  UNL1        0.0387
     22 C         139.6348  143.6144  158.3899 C.ar    1  UNL1        0.1047
     23 N         139.1853  143.8688  156.9817 N.ar    1  UNL1       -0.1716
@<TRIPOS>BOND
     1    18    19    1
     2    19    20   ar
     3    20    21   ar
     4    21    22   ar
     5    22    17    1
     6    17     1    1
     7     1     2   ar
     8     2     3   ar
     9     3     6    1
    10     6     7   ar
    11     7     8   ar
    12     8     9   ar
    13     9    10    1
    14     9    11   ar
    15    11    13    1
    16    13    14    1
    17    13    15    1
    18    13    16    1
    19    11    12   ar
    20     3     4   ar
    21     4     5   ar
    22    22    23   ar
    23    23    19   ar
    24     5     1   ar
    25    12     6   ar
@<TRIPOS>MOLECULE
*****
 23 25 0 0 0
SMALL
GASTEIGER

@<TRIPOS>ATOM
      1 N         138.2014  140.6483  163.5957 N.ar    1  UNL1       -0.2432
      2 C         138.6077  141.2707  164.8986 C.ar    1  UNL1        0.0971
      3 C         139.0378  140.1708  165.8235 C.ar    1  UNL1        0.0396
      4 C         138.8973  138.8687  165.0921 C.ar    1  UNL1        0.1216
      5 N         138.3804  139.1638  163.7153 N.ar    1  UNL1       -0.1673
      6 C         139.5232  140.3428  167.2323 C.ar    1  UNL1        0.0030
      7 C         138.6671  139.8965  168.3803 C.ar    1  UNL1        0.0010
      8 C         139.1524  140.0686  169.7891 C.ar    1  UNL1        0.0113
      9 C         140.4939  140.6869  170.0499 C.ar    1  UNL1        0.0616
     10 CL        140.9793  140.8589  171.4588 Cl      1  UNL1       -0.0823
     11 C         141.3501  141.1332  168.9020 C.ar    1  UNL1        0.0820
     12 C         140.8647  140.9612  167.4932 C.ar    1  UNL1        0.0048
     13 C         142.6916  141.7515  169.1628 C.3     1  UNL1        0.4194
     14 F         144.0331  142.3698  169.4237 F       1  UNL1       -0.1658
     15 F         143.3287  140.3949  169.1022 F       1  UNL1       -0.1658
     16 F         142.0545  143.1081  169.2235 F       1  UNL1       -0.1658
     17 C         137.7035  141.3817  162.3856 C.3     1  UNL1        0.1746
     18 C         139.6867  146.2162  161.6269 C.3     1  UNL1        0.1537
     19 N         139.4039  144.7507  161.4777 N.ar    1  UNL1       -0.2476
     20 C         140.0082  143.8358  160.4541 C.ar    1  UNL1        0.0964
     21 C         139.4448  142.4625  160.6696 C.ar    1  UNL1        0.0387
     22 C         138.4923  142.5285  161.8264 C.ar    1  UNL1        0.1047
     23 N         138.4669  143.9426  162.3258 N.ar    1  UNL1       -0.1716
@<TRIPOS>BOND
     1    18    19    1
     2    19    20   ar
     3    20    21   ar
     4    21    22   ar
     5    22    17    1
     6    17     1    1
     7     1     2   ar
     8     2     3   ar
     9     3     6    1
    10     6     7   ar
    11     7     8   ar
    12     8     9   ar
    13     9    10    1
    14     9    11   ar
    15    11    13    1
    16    13    14    1
    17    13    15    1
    18    13    16    1
    19    11    12   ar
    20     3     4   ar
    21     4     5   ar
    22    22    23   ar
    23    23    19   ar
    24     5     1   ar
    25    12     6   ar
@<TRIPOS>MOLECULE
*****
 23 25 0 0 0
SMALL
GASTEIGER

@<TRIPOS>ATOM
      1 N         139.9780  138.3534  163.9120 N.ar    1  UNL1       -0.2432
      2 C         140.6569  139.1485  164.9877 C.ar    1  UNL1        0.0971
      3 C         139.7533  139.1751  166.1847 C.ar    1  UNL1        0.0396
      4 C         138.5160  138.3964  165.8488 C.ar    1  UNL1        0.1216
      5 N         138.6548  137.8886  164.4442 N.ar    1  UNL1       -0.1673
      6 C         140.0371  139.8600  167.4887 C.ar    1  UNL1        0.0030
      7 C         138.9681  139.9498  168.5370 C.ar    1  UNL1        0.0010
      8 C         139.2520  140.6348  169.8409 C.ar    1  UNL1        0.0113
      9 C         140.6049  141.2299  170.0965 C.ar    1  UNL1        0.0616
     10 CL        140.8888  141.9149  171.4005 Cl      1  UNL1       -0.0823
     11 C         141.6740  141.1401  169.0482 C.ar    1  UNL1        0.0820
     12 C         141.3901  140.4552  167.7443 C.ar    1  UNL1        0.0048
     13 C         143.0269  141.7352  169.3038 C.3     1  UNL1        0.4194
     14 F         144.3799  142.3304  169.5594 F       1  UNL1       -0.1658
     15 F         142.6273  142.9681  168.5486 F       1  UNL1       -0.1658
     16 F         143.4266  140.5024  170.0589 F       1  UNL1       -0.1658
     17 C         140.5261  138.0725  162.5443 C.3     1  UNL1        0.1746
     18 C         143.9035  141.7081  160.7397 C.3     1  UNL1        0.1537
     19 N         143.3374  140.4193  161.2579 N.ar    1  UNL1       -0.2476
     20 C         144.1067  139.1567  161.5107 C.ar    1  UNL1        0.0964
     21 C         143.1473  138.1240  162.0233 C.ar    1  UNL1        0.0387
     22 C         141.7849  138.7482  162.0874 C.ar    1  UNL1        0.1047
     23 N         141.9023  140.1668  161.6143 N.ar    1  UNL1       -0.1716
@<TRIPOS>BOND
     1    18    19    1
     2    19    20   ar
     3    20    21   ar
     4    21    22   ar
     5    22    17    1
     6    17     1    1
     7     1     2   ar
     8     2     3   ar
     9     3     6    1
    10     6     7   ar
    11     7     8   ar
    12     8     9   ar
    13     9    10    1
    14     9    11   ar
    15    11    13    1
    16    13    14    1
    17    13    15    1
    18    13    16    1
    19    11    12   ar
    20     3     4   ar
    21     4     5   ar
    22    22    23   ar
    23    23    19   ar
    24     5     1   ar
    25    12     6   ar
@<TRIPOS>MOLECULE
*****
 23 25 0 0 0
SMALL
GASTEIGER

@<TRIPOS>ATOM
      1 N         138.4639  139.0901  162.7543 N.ar    1  UNL1       -0.2432
      2 C         139.1328  139.9285  163.8029 C.ar    1  UNL1        0.0971
      3 C         139.7170  139.0058  164.8311 C.ar    1  UNL1        0.0396
      4 C         139.4091  137.5971  164.4181 C.ar    1  UNL1        0.1216
      5 N         138.6347  137.6491  163.1345 N.ar    1  UNL1       -0.1673
      6 C         140.4758  139.4193  166.0573 C.ar    1  UNL1        0.0030
      7 C         141.9137  139.0238  166.2183 C.ar    1  UNL1        0.0010
      8 C         142.6725  139.4372  167.4443 C.ar    1  UNL1        0.0113
      9 C         141.9933  140.2462  168.5094 C.ar    1  UNL1        0.0616
     10 CL        142.7522  140.6596  169.7355 Cl      1  UNL1       -0.0823
     11 C         140.5554  140.6417  168.3484 C.ar    1  UNL1        0.0820
     12 C         139.7967  140.2282  167.1223 C.ar    1  UNL1        0.0048
     13 C         139.8763  141.4506  169.4135 C.3     1  UNL1        0.4194
     14 F         139.1971  142.2596  170.4785 F       1  UNL1       -0.1658
     15 F         140.3577  142.7129  168.7617 F       1  UNL1       -0.1658
     16 F         139.3949  140.1883  170.0653 F       1  UNL1       -0.1658
     17 C         137.7496  139.6025  161.5389 C.3     1  UNL1        0.1746
     18 C         138.6874  140.0963  156.3662 C.3     1  UNL1        0.1537
     19 N         138.8202  139.7107  157.8096 N.ar    1  UNL1       -0.2476
     20 C         139.9264  138.8911  158.4052 C.ar    1  UNL1        0.0964
     21 C         139.6600  138.7509  159.8746 C.ar    1  UNL1        0.0387
     22 C         138.3891  139.4837  160.1873 C.ar    1  UNL1        0.1047
     23 N         137.8701  140.0769  158.9111 N.ar    1  UNL1       -0.1716
@<TRIPOS>BOND
     1    18    19    1
     2    19    20   ar
     3    20    21   ar
     4    21    22   ar
     5    22    17    1
     6    17     1    1
     7     1     2   ar
     8     2     3   ar
     9     3     6    1
    10     6     7   ar
    11     7     8   ar
    12     8     9   ar
    13     9    10    1
    14     9    11   ar
    15    11    13    1
    16    13    14    1
    17    13    15    1
    18    13    16    1
    19    11    12   ar
    20     3     4   ar
    21     4     5   ar
    22    22    23   ar
    23    23    19   ar
    24     5     1   ar
    25    12     6   ar
