@<TRIPOS>MOLECULE
*****
 23 25 0 0 0
SMALL
GASTEIGER

@<TRIPOS>ATOM
      1 C         141.7350  143.4678  164.5269 C.ar    1  UNL1        0.0631
      2 C         141.6450  144.2964  163.2797 C.ar    1  UNL1        0.0151
      3 C         142.8060  144.3533  162.3316 C.ar    1  UNL1        0.0025
      4 C         144.0570  143.5817  162.6308 C.ar    1  UNL1        0.0184
      5 C         144.1471  142.7531  163.8779 C.ar    1  UNL1        0.1022
      6 N         142.9860  142.6962  164.8260 N.ar    1  UNL1       -0.2500
      7 C         140.5739  143.4108  165.4749 C.3     1  UNL1        0.0720
      8 C         137.8859  138.1692  166.6150 C.3     1  UNL1        0.0310
      9 C         138.5579  139.4796  166.3299 C.ar    1  UNL1       -0.0219
     10 C         138.2077  140.2481  165.0903 C.ar    1  UNL1       -0.0046
     11 C         138.8797  141.5585  164.8053 C.ar    1  UNL1       -0.0042
     12 C         139.9019  142.1004  165.7599 C.ar    1  UNL1       -0.0162
     13 C         140.2521  141.3320  166.9995 C.ar    1  UNL1       -0.0042
     14 C         139.5802  140.0216  167.2846 C.ar    1  UNL1       -0.0046
     15 C         145.3981  141.9815  164.1770 C.3     1  UNL1        0.2508
     16 O         145.4834  140.5257  163.8260 O.3     1  UNL1       -0.4690
     17 C         144.2824  139.6425  163.9924 C.ar    1  UNL1        0.1391
     18 C         143.5815  139.0942  162.7848 C.ar    1  UNL1        0.0366
     19 C         142.3806  138.2110  162.9512 C.ar    1  UNL1       -0.0011
     20 C         141.8806  137.8760  164.3253 C.ar    1  UNL1       -0.0217
     21 C         140.6797  136.9928  164.4917 C.3     1  UNL1        0.0310
     22 C         142.5815  138.4243  165.5328 C.ar    1  UNL1       -0.0011
     23 C         143.7824  139.3075  165.3663 C.ar    1  UNL1        0.0366
@<TRIPOS>BOND
     1     8     9    1
     2     9    10   ar
     3    10    11   ar
     4    11    12   ar
     5    12     7    1
     6     7     1    1
     7     1     2   ar
     8     2     3   ar
     9     3     4   ar
    10     4     5   ar
    11     5    15    1
    12    15    16    1
    13    16    17    1
    14    17    18   ar
    15    18    19   ar
    16    19    20   ar
    17    20    21    1
    18    20    22   ar
    19    22    23   ar
    20     5     6   ar
    21    12    13   ar
    22    13    14   ar
    23    14     9   ar
    24     6     1   ar
    25    23    17   ar
@<TRIPOS>MOLECULE
*****
 23 25 0 0 0
SMALL
GASTEIGER

@<TRIPOS>ATOM
      1 C         138.7612  140.5685  164.9790 C.ar    1  UNL1        0.0631
      2 C         138.2140  139.8082  166.1505 C.ar    1  UNL1        0.0151
      3 C         138.2537  138.3088  166.1563 C.ar    1  UNL1        0.0025
      4 C         138.8407  137.5696  164.9905 C.ar    1  UNL1        0.0184
      5 C         139.3879  138.3298  163.8190 C.ar    1  UNL1        0.1022
      6 N         139.3482  139.8293  163.8132 N.ar    1  UNL1       -0.2500
      7 C         138.7215  142.0680  164.9732 C.3     1  UNL1        0.0720
      8 C         143.7134  145.1971  163.8376 C.3     1  UNL1        0.0310
      9 C         142.4654  144.4148  164.1215 C.ar    1  UNL1       -0.0219
     10 C         141.1349  144.9321  163.6609 C.ar    1  UNL1       -0.0046
     11 C         139.8869  144.1498  163.9448 C.ar    1  UNL1       -0.0042
     12 C         139.9695  142.8502  164.6893 C.ar    1  UNL1       -0.0162
     13 C         141.2999  142.3330  165.1499 C.ar    1  UNL1       -0.0042
     14 C         142.5479  143.1153  164.8660 C.ar    1  UNL1       -0.0046
     15 C         139.9749  137.5906  162.6532 C.3     1  UNL1        0.2508
     16 O         141.4208  137.1920  162.6690 O.3     1  UNL1       -0.4690
     17 C         142.4772  138.2136  162.9696 C.ar    1  UNL1        0.1391
     18 C         143.2059  138.8915  161.8473 C.ar    1  UNL1        0.0366
     19 C         144.2623  139.9131  162.1479 C.ar    1  UNL1       -0.0011
     20 C         144.5901  140.2567  163.5708 C.ar    1  UNL1       -0.0217
     21 C         145.6465  141.2783  163.8714 C.3     1  UNL1        0.0310
     22 C         143.8614  139.5788  164.6930 C.ar    1  UNL1       -0.0011
     23 C         142.8050  138.5572  164.3924 C.ar    1  UNL1        0.0366
@<TRIPOS>BOND
     1     8     9    1
     2     9    10   ar
     3    10    11   ar
     4    11    12   ar
     5    12     7    1
     6     7     1    1
     7     1     2   ar
     8     2     3   ar
     9     3     4   ar
    10     4     5   ar
    11     5    15    1
    12    15    16    1
    13    16    17    1
    14    17    18   ar
    15    18    19   ar
    16    19    20   ar
    17    20    21    1
    18    20    22   ar
    19    22    23   ar
    20     5     6   ar
    21    12    13   ar
    22    13    14   ar
    23    14     9   ar
    24     6     1   ar
    25    23    17   ar
@<TRIPOS>MOLECULE
*****
 23 25 0 0 0
SMALL
GASTEIGER

@<TRIPOS>ATOM
      1 C         139.2907  138.5559  165.0401 C.ar    1  UNL1        0.0631
      2 C         140.3632  137.5261  164.8414 C.ar    1  UNL1        0.0151
      3 C         140.9051  137.2630  163.4677 C.ar    1  UNL1        0.0025
      4 C         140.3745  138.0295  162.2927 C.ar    1  UNL1        0.0184
      5 C         139.3020  139.0593  162.4913 C.ar    1  UNL1        0.1022
      6 N         138.7601  139.3224  163.8650 N.ar    1  UNL1       -0.2500
      7 C         138.7489  138.8190  166.4138 C.3     1  UNL1        0.0720
      8 C         140.8806  143.3973  169.6535 C.3     1  UNL1        0.0310
      9 C         140.3476  142.2527  168.8436 C.ar    1  UNL1       -0.0219
     10 C         140.4953  142.2573  167.3509 C.ar    1  UNL1       -0.0046
     11 C         139.9624  141.1127  166.5410 C.ar    1  UNL1       -0.0042
     12 C         139.2818  139.9636  167.2237 C.ar    1  UNL1       -0.0162
     13 C         139.1341  139.9590  168.7164 C.ar    1  UNL1       -0.0042
     14 C         139.6670  141.1035  169.5263 C.ar    1  UNL1       -0.0046
     15 C         138.7714  139.8258  161.3162 C.3     1  UNL1        0.2508
     16 O         139.1282  141.2722  161.1413 O.3     1  UNL1       -0.4690
     17 C         138.9955  142.2222  162.2946 C.ar    1  UNL1        0.1391
     18 C         137.6460  142.4949  162.8902 C.ar    1  UNL1        0.0366
     19 C         137.5134  143.4449  164.0434 C.ar    1  UNL1       -0.0011
     20 C         138.7302  144.1221  164.6011 C.ar    1  UNL1       -0.0217
     21 C         138.5975  145.0720  165.7543 C.3     1  UNL1        0.0310
     22 C         140.0795  143.8493  164.0055 C.ar    1  UNL1       -0.0011
     23 C         140.2122  142.8994  162.8522 C.ar    1  UNL1        0.0366
@<TRIPOS>BOND
     1     8     9    1
     2     9    10   ar
     3    10    11   ar
     4    11    12   ar
     5    12     7    1
     6     7     1    1
     7     1     2   ar
     8     2     3   ar
     9     3     4   ar
    10     4     5   ar
    11     5    15    1
    12    15    16    1
    13    16    17    1
    14    17    18   ar
    15    18    19   ar
    16    19    20   ar
    17    20    21    1
    18    20    22   ar
    19    22    23   ar
    20     5     6   ar
    21    12    13   ar
    22    13    14   ar
    23    14     9   ar
    24     6     1   ar
    25    23    17   ar
@<TRIPOS>MOLECULE
*****
 23 25 0 0 0
SMALL
GASTEIGER

@<TRIPOS>ATOM
      1 C         143.4403  139.6669  163.1916 C.ar    1  UNL1        0.0631
      2 C         144.6699  139.6605  164.0508 C.ar    1  UNL1        0.0151
      3 C         145.6239  140.8171  164.0035 C.ar    1  UNL1        0.0025
      4 C         145.3483  141.9801  163.0971 C.ar    1  UNL1        0.0184
      5 C         144.1188  141.9865  162.2379 C.ar    1  UNL1        0.1022
      6 N         143.1647  140.8299  162.2852 N.ar    1  UNL1       -0.2500
      7 C         142.4863  138.5103  163.2388 C.3     1  UNL1        0.0720
      8 C         137.7318  138.6905  166.8942 C.3     1  UNL1        0.0310
      9 C         138.9204  138.6455  165.9804 C.ar    1  UNL1       -0.0219
     10 C         139.0741  137.5165  165.0048 C.ar    1  UNL1       -0.0046
     11 C         140.2627  137.4715  164.0910 C.ar    1  UNL1       -0.0042
     12 C         141.2977  138.5554  164.1527 C.ar    1  UNL1       -0.0162
     13 C         141.1441  139.6844  165.1282 C.ar    1  UNL1       -0.0042
     14 C         139.9554  139.7294  166.0421 C.ar    1  UNL1       -0.0046
     15 C         143.8432  143.1494  161.3315 C.3     1  UNL1        0.2508
     16 O         143.3641  144.4501  161.9048 O.3     1  UNL1       -0.4690
     17 C         142.0977  144.4948  162.7074 C.ar    1  UNL1        0.1391
     18 C         140.8889  145.1964  162.1626 C.ar    1  UNL1        0.0366
     19 C         139.6225  145.2411  162.9652 C.ar    1  UNL1       -0.0011
     20 C         139.5648  144.5841  164.3125 C.ar    1  UNL1       -0.0217
     21 C         138.2983  144.6288  165.1151 C.3     1  UNL1        0.0310
     22 C         140.7735  143.8825  164.8571 C.ar    1  UNL1       -0.0011
     23 C         142.0399  143.8378  164.0546 C.ar    1  UNL1        0.0366
@<TRIPOS>BOND
     1     8     9    1
     2     9    10   ar
     3    10    11   ar
     4    11    12   ar
     5    12     7    1
     6     7     1    1
     7     1     2   ar
     8     2     3   ar
     9     3     4   ar
    10     4     5   ar
    11     5    15    1
    12    15    16    1
    13    16    17    1
    14    17    18   ar
    15    18    19   ar
    16    19    20   ar
    17    20    21    1
    18    20    22   ar
    19    22    23   ar
    20     5     6   ar
    21    12    13   ar
    22    13    14   ar
    23    14     9   ar
    24     6     1   ar
    25    23    17   ar
@<TRIPOS>MOLECULE
*****
 23 25 0 0 0
SMALL
GASTEIGER

@<TRIPOS>ATOM
      1 C         139.3852  140.3054  165.6788 C.ar    1  UNL1        0.0631
      2 C         138.5270  139.3960  166.5073 C.ar    1  UNL1        0.0151
      3 C         138.2437  137.9995  166.0389 C.ar    1  UNL1        0.0025
      4 C         138.8186  137.5123  164.7419 C.ar    1  UNL1        0.0184
      5 C         139.6768  138.4217  163.9134 C.ar    1  UNL1        0.1022
      6 N         139.9601  139.8183  164.3818 N.ar    1  UNL1       -0.2500
      7 C         139.6684  141.7020  166.1472 C.3     1  UNL1        0.0720
      8 C         144.2308  142.7390  169.9034 C.3     1  UNL1        0.0310
      9 C         143.0902  142.4797  168.9643 C.ar    1  UNL1       -0.0219
     10 C         143.3506  142.3100  167.4969 C.ar    1  UNL1       -0.0046
     11 C         142.2100  142.0507  166.5579 C.ar    1  UNL1       -0.0042
     12 C         140.8090  141.9612  167.0862 C.ar    1  UNL1       -0.0162
     13 C         140.5487  142.1310  168.5536 C.ar    1  UNL1       -0.0042
     14 C         141.6893  142.3902  169.4927 C.ar    1  UNL1       -0.0046
     15 C         140.2517  137.9346  162.6164 C.3     1  UNL1        0.2508
     16 O         141.7004  137.5545  162.5339 O.3     1  UNL1       -0.4690
     17 C         142.7608  138.5691  162.8441 C.ar    1  UNL1        0.1391
     18 C         143.2624  139.4833  161.7659 C.ar    1  UNL1        0.0366
     19 C         144.3228  140.4979  162.0761 C.ar    1  UNL1       -0.0011
     20 C         144.8816  140.5981  163.4646 C.ar    1  UNL1       -0.0217
     21 C         145.9420  141.6127  163.7749 C.3     1  UNL1        0.0310
     22 C         144.3800  139.6839  164.5428 C.ar    1  UNL1       -0.0011
     23 C         143.3196  138.6693  164.2325 C.ar    1  UNL1        0.0366
@<TRIPOS>BOND
     1     8     9    1
     2     9    10   ar
     3    10    11   ar
     4    11    12   ar
     5    12     7    1
     6     7     1    1
     7     1     2   ar
     8     2     3   ar
     9     3     4   ar
    10     4     5   ar
    11     5    15    1
    12    15    16    1
    13    16    17    1
    14    17    18   ar
    15    18    19   ar
    16    19    20   ar
    17    20    21    1
    18    20    22   ar
    19    22    23   ar
    20     5     6   ar
    21    12    13   ar
    22    13    14   ar
    23    14     9   ar
    24     6     1   ar
    25    23    17   ar
@<TRIPOS>MOLECULE
*****
 23 25 0 0 0
SMALL
GASTEIGER

@<TRIPOS>ATOM
      1 C         138.2858  140.0888  163.9388 C.ar    1  UNL1        0.0631
      2 C         138.1258  139.6254  162.5211 C.ar    1  UNL1        0.0151
      3 C         137.8896  140.6245  161.4276 C.ar    1  UNL1        0.0025
      4 C         137.8133  142.0871  161.7516 C.ar    1  UNL1        0.0184
      5 C         137.9732  142.5506  163.1692 C.ar    1  UNL1        0.1022
      6 N         138.2095  141.5514  164.2628 N.ar    1  UNL1       -0.2500
      7 C         138.5221  139.0897  165.0323 C.3     1  UNL1        0.0720
      8 C         142.7039  140.1412  169.2045 C.3     1  UNL1        0.0310
      9 C         141.6584  139.8783  168.1615 C.ar    1  UNL1       -0.0219
     10 C         142.0620  139.3939  166.8005 C.ar    1  UNL1       -0.0046
     11 C         141.0166  139.1310  165.7574 C.ar    1  UNL1       -0.0042
     12 C         139.5675  139.3526  166.0754 C.ar    1  UNL1       -0.0162
     13 C         139.1639  139.8370  167.4364 C.ar    1  UNL1       -0.0042
     14 C         140.2094  140.0999  168.4794 C.ar    1  UNL1       -0.0046
     15 C         137.8969  144.0132  163.4932 C.3     1  UNL1        0.2508
     16 O         138.7514  144.5850  164.5853 O.3     1  UNL1       -0.4690
     17 C         140.2046  144.2226  164.6681 C.ar    1  UNL1        0.1391
     18 C         141.1999  144.9059  163.7778 C.ar    1  UNL1        0.0366
     19 C         142.6531  144.5436  163.8606 C.ar    1  UNL1       -0.0011
     20 C         143.1110  143.4979  164.8337 C.ar    1  UNL1       -0.0217
     21 C         144.5643  143.1355  164.9165 C.3     1  UNL1        0.0310
     22 C         142.1158  142.8146  165.7240 C.ar    1  UNL1       -0.0011
     23 C         140.6626  143.1770  165.6412 C.ar    1  UNL1        0.0366
@<TRIPOS>BOND
     1     8     9    1
     2     9    10   ar
     3    10    11   ar
     4    11    12   ar
     5    12     7    1
     6     7     1    1
     7     1     2   ar
     8     2     3   ar
     9     3     4   ar
    10     4     5   ar
    11     5    15    1
    12    15    16    1
    13    16    17    1
    14    17    18   ar
    15    18    19   ar
    16    19    20   ar
    17    20    21    1
    18    20    22   ar
    19    22    23   ar
    20     5     6   ar
    21    12    13   ar
    22    13    14   ar
    23    14     9   ar
    24     6     1   ar
    25    23    17   ar
@<TRIPOS>MOLECULE
*****
 23 25 0 0 0
SMALL
GASTEIGER

@<TRIPOS>ATOM
      1 C         138.6401  139.1548  165.7668 C.ar    1  UNL1        0.0631
      2 C         138.9625  137.8430  165.1146 C.ar    1  UNL1        0.0151
      3 C         138.8168  137.6879  163.6298 C.ar    1  UNL1        0.0025
      4 C         138.3488  138.8445  162.7972 C.ar    1  UNL1        0.0184
      5 C         138.0264  140.1562  163.4494 C.ar    1  UNL1        0.1022
      6 N         138.1720  140.3114  164.9342 N.ar    1  UNL1       -0.2500
      7 C         138.7857  139.3099  167.2516 C.3     1  UNL1        0.0720
      8 C         143.4819  142.2832  169.5111 C.3     1  UNL1        0.0310
      9 C         142.3078  141.5399  168.9462 C.ar    1  UNL1       -0.0219
     10 C         142.4923  140.6310  167.7673 C.ar    1  UNL1       -0.0046
     11 C         141.3182  139.8877  167.2025 C.ar    1  UNL1       -0.0042
     12 C         139.9597  140.0532  167.8165 C.ar    1  UNL1       -0.0162
     13 C         139.7753  140.9621  168.9954 C.ar    1  UNL1       -0.0042
     14 C         140.9494  141.7054  169.5603 C.ar    1  UNL1       -0.0046
     15 C         137.5584  141.3128  162.6167 C.3     1  UNL1        0.2508
     16 O         138.4755  142.4716  162.3597 O.3     1  UNL1       -0.4690
     17 C         139.7659  142.5887  163.1154 C.ar    1  UNL1        0.1391
     18 C         139.7864  143.2351  164.4689 C.ar    1  UNL1        0.0366
     19 C         141.0768  143.3523  165.2246 C.ar    1  UNL1       -0.0011
     20 C         142.3468  142.8231  164.6268 C.ar    1  UNL1       -0.0217
     21 C         143.6372  142.9403  165.3825 C.3     1  UNL1        0.0310
     22 C         142.3262  142.1768  163.2734 C.ar    1  UNL1       -0.0011
     23 C         141.0358  142.0596  162.5177 C.ar    1  UNL1        0.0366
@<TRIPOS>BOND
     1     8     9    1
     2     9    10   ar
     3    10    11   ar
     4    11    12   ar
     5    12     7    1
     6     7     1    1
     7     1     2   ar
     8     2     3   ar
     9     3     4   ar
    10     4     5   ar
    11     5    15    1
    12    15    16    1
    13    16    17    1
    14    17    18   ar
    15    18    19   ar
    16    19    20   ar
    17    20    21    1
    18    20    22   ar
    19    22    23   ar
    20     5     6   ar
    21    12    13   ar
    22    13    14   ar
    23    14     9   ar
    24     6     1   ar
    25    23    17   ar
@<TRIPOS>MOLECULE
*****
 23 25 0 0 0
SMALL
GASTEIGER

@<TRIPOS>ATOM
      1 C         139.4345  140.0344  167.8849 C.ar    1  UNL1        0.0631
      2 C         139.2339  140.3644  169.3344 C.ar    1  UNL1        0.0151
      3 C         140.2213  141.2395  170.0480 C.ar    1  UNL1        0.0025
      4 C         141.4092  141.7847  169.3122 C.ar    1  UNL1        0.0184
      5 C         141.6099  141.4548  167.8628 C.ar    1  UNL1        0.1022
      6 N         140.6225  140.5797  167.1491 N.ar    1  UNL1       -0.2500
      7 C         138.4472  139.1593  167.1713 C.3     1  UNL1        0.0720
      8 C         138.8015  138.4688  161.2218 C.3     1  UNL1        0.0310
      9 C         138.7129  138.6414  162.7091 C.ar    1  UNL1       -0.0219
     10 C         138.1962  139.9262  163.2856 C.ar    1  UNL1       -0.0046
     11 C         138.1076  140.0988  164.7730 C.ar    1  UNL1       -0.0042
     12 C         138.5357  138.9867  165.6839 C.ar    1  UNL1       -0.0162
     13 C         139.0524  137.7019  165.1075 C.ar    1  UNL1       -0.0042
     14 C         139.1410  137.5293  163.6201 C.ar    1  UNL1       -0.0046
     15 C         142.7978  142.0001  167.1269 C.3     1  UNL1        0.2508
     16 O         142.6994  142.2984  165.6602 O.3     1  UNL1       -0.4690
     17 C         142.9737  141.2191  164.6553 C.ar    1  UNL1        0.1391
     18 C         144.3459  140.6221  164.5515 C.ar    1  UNL1        0.0366
     19 C         144.6201  139.5428  163.5465 C.ar    1  UNL1       -0.0011
     20 C         143.5221  139.0605  162.6454 C.ar    1  UNL1       -0.0217
     21 C         143.7964  137.9812  161.6404 C.3     1  UNL1        0.0310
     22 C         142.1500  139.6575  162.7492 C.ar    1  UNL1       -0.0011
     23 C         141.8758  140.7368  163.7541 C.ar    1  UNL1        0.0366
@<TRIPOS>BOND
     1     8     9    1
     2     9    10   ar
     3    10    11   ar
     4    11    12   ar
     5    12     7    1
     6     7     1    1
     7     1     2   ar
     8     2     3   ar
     9     3     4   ar
    10     4     5   ar
    11     5    15    1
    12    15    16    1
    13    16    17    1
    14    17    18   ar
    15    18    19   ar
    16    19    20   ar
    17    20    21    1
    18    20    22   ar
    19    22    23   ar
    20     5     6   ar
    21    12    13   ar
    22    13    14   ar
    23    14     9   ar
    24     6     1   ar
    25    23    17   ar
@<TRIPOS>MOLECULE
*****
 23 25 0 0 0
SMALL
GASTEIGER

@<TRIPOS>ATOM
      1 C         141.9603  143.0496  164.9802 C.ar    1  UNL1        0.0631
      2 C         143.1416  143.8171  164.4646 C.ar    1  UNL1        0.0151
      3 C         142.9323  145.0181  163.5908 C.ar    1  UNL1        0.0025
      4 C         141.5418  145.4518  163.2325 C.ar    1  UNL1        0.0184
      5 C         140.3606  144.6844  163.7480 C.ar    1  UNL1        0.1022
      6 N         140.5698  143.4833  164.6219 N.ar    1  UNL1       -0.2500
      7 C         142.1696  141.8485  165.8540 C.3     1  UNL1        0.0720
      8 C         138.2940  137.2730  165.6430 C.3     1  UNL1        0.0310
      9 C         139.2629  138.4169  165.6958 C.ar    1  UNL1       -0.0219
     10 C         139.0426  139.5425  166.6624 C.ar    1  UNL1       -0.0046
     11 C         140.0115  140.6864  166.7151 C.ar    1  UNL1       -0.0042
     12 C         141.2007  140.7047  165.8012 C.ar    1  UNL1       -0.0162
     13 C         141.4211  139.5791  164.8346 C.ar    1  UNL1       -0.0042
     14 C         140.4522  138.4352  164.7818 C.ar    1  UNL1       -0.0046
     15 C         138.9700  145.1181  163.3897 C.3     1  UNL1        0.2508
     16 O         138.2436  144.4499  162.2603 O.3     1  UNL1       -0.4690
     17 C         138.1700  142.9530  162.1971 C.ar    1  UNL1        0.1391
     18 C         137.6709  142.1761  163.3792 C.ar    1  UNL1        0.0366
     19 C         137.5973  140.6792  163.3161 C.ar    1  UNL1       -0.0011
     20 C         138.0229  139.9593  162.0708 C.ar    1  UNL1       -0.0217
     21 C         137.9494  138.4624  162.0077 C.3     1  UNL1        0.0310
     22 C         138.5221  140.7362  160.8888 C.ar    1  UNL1       -0.0011
     23 C         138.5957  142.2330  160.9520 C.ar    1  UNL1        0.0366
@<TRIPOS>BOND
     1     8     9    1
     2     9    10   ar
     3    10    11   ar
     4    11    12   ar
     5    12     7    1
     6     7     1    1
     7     1     2   ar
     8     2     3   ar
     9     3     4   ar
    10     4     5   ar
    11     5    15    1
    12    15    16    1
    13    16    17    1
    14    17    18   ar
    15    18    19   ar
    16    19    20   ar
    17    20    21    1
    18    20    22   ar
    19    22    23   ar
    20     5     6   ar
    21    12    13   ar
    22    13    14   ar
    23    14     9   ar
    24     6     1   ar
    25    23    17   ar
