@<TRIPOS>MOLECULE
*****
 32 36 0 0 0
SMALL
GASTEIGER

@<TRIPOS>ATOM
      1 N         139.9269  138.3351  163.1230 N.3     1  UNL1       -0.2703
      2 C         139.1844  139.0827  164.1906 C.3     1  UNL1        0.0727
      3 C         139.8613  139.4038  165.4901 C.3     1  UNL1        0.0260
      4 C         141.2806  138.9774  165.7220 C.3     1  UNL1        0.0737
      5 C         142.0230  138.2298  164.6544 C.3     1  UNL1        0.0260
      6 C         141.3462  137.9087  163.3549 C.3     1  UNL1        0.0727
      7 C         142.6881  138.6178  166.0955 C.3     1  UNL1        0.0306
      8 C         142.9462  139.1327  167.4806 C.3     1  UNL1        0.0992
      9 N         141.6980  139.8105  167.9631 N.am    1  UNL1       -0.2516
     10 C         140.6687  139.7146  166.8763 C.2     1  UNL1        0.2289
     11 O         139.2725  140.2599  166.9336 O.2     1  UNL1       -0.2745
     12 C         141.5120  140.4687  169.2980 C.ar    1  UNL1        0.1141
     13 S         140.5224  140.0643  170.3501 S.2     1  UNL1        0.0292
     14 N         140.6816  140.9926  171.5176 N.ar    1  UNL1       -0.2055
     15 C         141.7696  141.9708  171.1870 C.ar    1  UNL1        0.1205
     16 C         142.2828  141.6470  169.8151 C.ar    1  UNL1        0.0986
     17 CL        143.3751  142.3739  169.0882 Cl      1  UNL1       -0.0787
     18 C         139.2501  138.0139  161.8234 C.3     1  UNL1        0.1063
     19 C         139.3996  138.9381  160.6515 C.3     1  UNL1        0.1483
     20 O         139.4902  138.3792  159.2624 O.3     1  UNL1       -0.3786
     21 H         139.5831  139.1061  158.6269 H       1  UNL1        0.2108
     22 C         142.0440  140.3546  160.6227 C.3     1  UNL1        0.0306
     23 C         140.7806  141.1294  160.8542 C.ar    1  UNL1       -0.0238
     24 C         139.4584  140.4212  160.8685 C.ar    1  UNL1        0.0015
     25 C         138.1951  141.1960  161.1000 C.ar    1  UNL1       -0.0020
     26 C         138.2539  142.6790  161.3171 C.ar    1  UNL1        0.0060
     27 C         139.5761  143.3872  161.3027 C.ar    1  UNL1        0.0748
     28 C         140.8394  142.6124  161.0712 C.ar    1  UNL1        0.0233
     29 C         141.9881  143.5762  161.1110 C.3     1  UNL1        0.2352
     30 O         141.4347  144.9467  161.3671 O.3     1  UNL1       -0.4404
     31 C         139.9440  144.8298  161.4855 C.2     1  UNL1        0.3413
     32 O         138.9888  145.9577  161.7418 O.2     1  UNL1       -0.2449
@<TRIPOS>BOND
     1    22    23    1
     2    23    24   ar
     3    24    19    1
     4    19    20    1
     5    19    18    1
     6    18     1    1
     7     1     2    1
     8     2     3    1
     9     3     4    1
    10     4     5    1
    11     5     6    1
    12     4     7    1
    13     7     8    1
    14     8     9    1
    15     9    12    1
    16    12    13   ar
    17    13    14   ar
    18    14    15   ar
    19    15    16   ar
    20    16    17    1
    21     9    10   am
    22    10    11    2
    23    24    25   ar
    24    25    26   ar
    25    26    27   ar
    26    27    28   ar
    27    28    29    1
    28    29    30    1
    29    30    31    1
    30    31    32    2
    31    28    23   ar
    32     6     1    1
    33    16    12   ar
    34    31    27    1
    35    10     4    1
    36    20    21    1
@<TRIPOS>MOLECULE
*****
 32 36 0 0 0
SMALL
GASTEIGER

@<TRIPOS>ATOM
      1 N         139.8925  137.8382  164.0097 N.3     1  UNL1       -0.2703
      2 C         139.4094  137.9297  162.5926 C.3     1  UNL1        0.0727
      3 C         140.3880  138.1645  161.4803 C.3     1  UNL1        0.0260
      4 C         141.8497  138.3079  161.7852 C.3     1  UNL1        0.0737
      5 C         142.3328  138.2164  163.2023 C.3     1  UNL1        0.0260
      6 C         141.3542  137.9816  164.3145 C.3     1  UNL1        0.0727
      7 C         143.3333  138.4702  161.9357 C.3     1  UNL1        0.0306
      8 C         143.9170  138.6843  160.5705 C.3     1  UNL1        0.0992
      9 N         142.7942  138.6543  159.5763 N.am    1  UNL1       -0.2516
     10 C         141.5165  138.4217  160.3270 C.2     1  UNL1        0.2289
     11 O         140.1463  138.3206  159.7253 O.2     1  UNL1       -0.2745
     12 C         142.9258  138.8266  158.0922 C.ar    1  UNL1        0.1141
     13 S         143.0666  140.1311  157.3651 S.2     1  UNL1        0.0292
     14 N         143.1676  139.8355  155.8980 N.ar    1  UNL1       -0.2055
     15 C         143.0894  138.3483  155.7183 C.ar    1  UNL1        0.1205
     16 C         142.9399  137.7249  157.0744 C.ar    1  UNL1        0.0986
     17 CL        142.8248  136.2573  157.3622 Cl      1  UNL1       -0.0787
     18 C         138.9139  137.6034  165.1221 C.3     1  UNL1        0.1063
     19 C         138.1913  138.7622  165.7424 C.3     1  UNL1        0.1483
     20 O         137.3478  138.5526  166.9649 O.3     1  UNL1       -0.3786
     21 H         136.9541  139.3970  167.2348 H       1  UNL1        0.2108
     22 C         140.1028  140.7542  166.9163 C.3     1  UNL1        0.0306
     23 C         139.2678  141.1267  165.7271 C.ar    1  UNL1       -0.0238
     24 C         138.3121  140.1307  165.1401 C.ar    1  UNL1        0.0015
     25 C         137.4772  140.5032  163.9510 C.ar    1  UNL1       -0.0020
     26 C         137.5980  141.8717  163.3487 C.ar    1  UNL1        0.0060
     27 C         138.5537  142.8676  163.9357 C.ar    1  UNL1        0.0748
     28 C         139.3886  142.4952  165.1249 C.ar    1  UNL1        0.0233
     29 C         140.2378  143.6784  165.4840 C.3     1  UNL1        0.2352
     30 O         139.9277  144.7822  164.5167 O.3     1  UNL1       -0.4404
     31 C         138.8869  144.2811  163.5599 C.2     1  UNL1        0.3413
     32 O         138.2848  145.0571  162.4262 O.2     1  UNL1       -0.2449
@<TRIPOS>BOND
     1    22    23    1
     2    23    24   ar
     3    24    19    1
     4    19    20    1
     5    19    18    1
     6    18     1    1
     7     1     2    1
     8     2     3    1
     9     3     4    1
    10     4     5    1
    11     5     6    1
    12     4     7    1
    13     7     8    1
    14     8     9    1
    15     9    12    1
    16    12    13   ar
    17    13    14   ar
    18    14    15   ar
    19    15    16   ar
    20    16    17    1
    21     9    10   am
    22    10    11    2
    23    24    25   ar
    24    25    26   ar
    25    26    27   ar
    26    27    28   ar
    27    28    29    1
    28    29    30    1
    29    30    31    1
    30    31    32    2
    31    28    23   ar
    32     6     1    1
    33    16    12   ar
    34    31    27    1
    35    10     4    1
    36    20    21    1
@<TRIPOS>MOLECULE
*****
 32 36 0 0 0
SMALL
GASTEIGER

@<TRIPOS>ATOM
      1 N         140.2471  138.3589  163.2456 N.3     1  UNL1       -0.2703
      2 C         141.2784  139.0421  164.0940 C.3     1  UNL1        0.0727
      3 C         140.9548  139.4199  165.5091 C.3     1  UNL1        0.0260
      4 C         139.6000  139.1144  166.0759 C.3     1  UNL1        0.0737
      5 C         138.5688  138.4313  165.2275 C.3     1  UNL1        0.0260
      6 C         138.8923  138.0535  163.8124 C.3     1  UNL1        0.0727
      7 C         138.2954  138.8747  166.7762 C.3     1  UNL1        0.0306
      8 C         138.4134  139.4104  168.1724 C.3     1  UNL1        0.0992
      9 N         139.7910  139.9812  168.3349 N.am    1  UNL1       -0.2516
     10 C         140.5244  139.7983  167.0393 C.2     1  UNL1        0.2289
     11 O         141.9345  140.2244  166.7565 O.2     1  UNL1       -0.2745
     12 C         140.3390  140.6222  169.5753 C.ar    1  UNL1        0.1141
     13 S         139.7704  141.8226  170.2723 S.2     1  UNL1        0.0292
     14 N         140.6318  142.1178  171.4642 N.ar    1  UNL1       -0.2055
     15 C         141.7329  141.0999  171.5040 C.ar    1  UNL1        0.1205
     16 C         141.5519  140.1756  170.3364 C.ar    1  UNL1        0.0986
     17 CL        142.4297  139.0095  169.9909 Cl      1  UNL1       -0.0787
     18 C         140.5706  137.9812  161.8304 C.3     1  UNL1        0.1063
     19 C         140.3964  138.9834  160.7281 C.3     1  UNL1        0.1483
     20 O         140.3010  138.5227  159.3038 O.3     1  UNL1       -0.3786
     21 H         140.1914  139.2912  158.7221 H       1  UNL1        0.2108
     22 C         137.7563  140.2254  161.4267 C.3     1  UNL1        0.0306
     23 C         138.9975  141.0673  161.3994 C.ar    1  UNL1       -0.0238
     24 C         140.3174  140.4463  161.0501 C.ar    1  UNL1        0.0015
     25 C         141.5586  141.2883  161.0228 C.ar    1  UNL1       -0.0020
     26 C         141.4797  142.7512  161.3447 C.ar    1  UNL1        0.0060
     27 C         140.1597  143.3721  161.6940 C.ar    1  UNL1        0.0748
     28 C         138.9186  142.5302  161.7213 C.ar    1  UNL1        0.0233
     29 C         137.7670  143.4143  162.0983 C.3     1  UNL1        0.2352
     30 O         138.2963  144.8026  162.3040 O.3     1  UNL1       -0.4404
     31 C         139.7751  144.7765  162.0541 C.2     1  UNL1        0.3413
     32 O         140.7060  145.9490  162.1479 O.2     1  UNL1       -0.2449
@<TRIPOS>BOND
     1    22    23    1
     2    23    24   ar
     3    24    19    1
     4    19    20    1
     5    19    18    1
     6    18     1    1
     7     1     2    1
     8     2     3    1
     9     3     4    1
    10     4     5    1
    11     5     6    1
    12     4     7    1
    13     7     8    1
    14     8     9    1
    15     9    12    1
    16    12    13   ar
    17    13    14   ar
    18    14    15   ar
    19    15    16   ar
    20    16    17    1
    21     9    10   am
    22    10    11    2
    23    24    25   ar
    24    25    26   ar
    25    26    27   ar
    26    27    28   ar
    27    28    29    1
    28    29    30    1
    29    30    31    1
    30    31    32    2
    31    28    23   ar
    32     6     1    1
    33    16    12   ar
    34    31    27    1
    35    10     4    1
    36    20    21    1
@<TRIPOS>MOLECULE
*****
 32 36 0 0 0
SMALL
GASTEIGER

@<TRIPOS>ATOM
      1 N         142.1428  138.3787  163.3027 N.3     1  UNL1       -0.2703
      2 C         142.8708  139.0534  164.4273 C.3     1  UNL1        0.0727
      3 C         142.1300  139.4472  165.6707 C.3     1  UNL1        0.0260
      4 C         140.6614  139.1665  165.7895 C.3     1  UNL1        0.0737
      5 C         139.9334  138.4918  164.6649 C.3     1  UNL1        0.0260
      6 C         140.6741  138.0979  163.4215 C.3     1  UNL1        0.0727
      7 C         139.1999  138.9517  166.0506 C.3     1  UNL1        0.0306
      8 C         138.8873  139.4968  167.4127 C.3     1  UNL1        0.0992
      9 N         140.1556  140.0484  167.9935 N.am    1  UNL1       -0.2516
     10 C         141.2520  139.8443  166.9903 C.2     1  UNL1        0.2289
     11 O         142.6870  140.2472  167.1583 O.2     1  UNL1       -0.2745
     12 C         140.3019  140.6913  169.3407 C.ar    1  UNL1        0.1141
     13 S         140.3684  139.9749  170.6569 S.2     1  UNL1        0.0292
     14 N         140.5149  141.0043  171.7381 N.ar    1  UNL1       -0.2055
     15 C         140.5389  142.3570  171.0901 C.ar    1  UNL1        0.1205
     16 C         140.4072  142.1634  169.6084 C.ar    1  UNL1        0.0986
     17 CL        140.3848  143.2511  168.5758 Cl      1  UNL1       -0.0787
     18 C         142.8835  137.9848  162.0592 C.3     1  UNL1        0.1063
     19 C         143.1216  138.9950  160.9763 C.3     1  UNL1        0.1483
     20 O         144.0483  138.6737  159.8414 O.3     1  UNL1       -0.3786
     21 H         144.0895  139.4288  159.2339 H       1  UNL1        0.2108
     22 C         144.5357  141.3708  162.1407 C.3     1  UNL1        0.0306
     23 C         143.1399  141.5145  161.6104 C.ar    1  UNL1       -0.0238
     24 C         142.4329  140.3266  161.0281 C.ar    1  UNL1        0.0015
     25 C         141.0371  140.4703  160.4978 C.ar    1  UNL1       -0.0020
     26 C         140.3484  141.8018  160.5497 C.ar    1  UNL1        0.0060
     27 C         141.0555  142.9896  161.1319 C.ar    1  UNL1        0.0748
     28 C         142.4512  142.8460  161.6622 C.ar    1  UNL1        0.0233
     29 C         142.8926  144.1850  162.1743 C.3     1  UNL1        0.2352
     30 O         141.7696  145.1562  161.9604 O.3     1  UNL1       -0.4404
     31 C         140.6342  144.4174  161.3162 C.2     1  UNL1        0.3413
     32 O         139.3101  145.0035  160.9249 O.2     1  UNL1       -0.2449
@<TRIPOS>BOND
     1    22    23    1
     2    23    24   ar
     3    24    19    1
     4    19    20    1
     5    19    18    1
     6    18     1    1
     7     1     2    1
     8     2     3    1
     9     3     4    1
    10     4     5    1
    11     5     6    1
    12     4     7    1
    13     7     8    1
    14     8     9    1
    15     9    12    1
    16    12    13   ar
    17    13    14   ar
    18    14    15   ar
    19    15    16   ar
    20    16    17    1
    21     9    10   am
    22    10    11    2
    23    24    25   ar
    24    25    26   ar
    25    26    27   ar
    26    27    28   ar
    27    28    29    1
    28    29    30    1
    29    30    31    1
    30    31    32    2
    31    28    23   ar
    32     6     1    1
    33    16    12   ar
    34    31    27    1
    35    10     4    1
    36    20    21    1
@<TRIPOS>MOLECULE
*****
 32 36 0 0 0
SMALL
GASTEIGER

@<TRIPOS>ATOM
      1 N         138.7374  141.1622  163.9683 N.3     1  UNL1       -0.2703
      2 C         139.2124  140.8966  162.5706 C.3     1  UNL1        0.0727
      3 C         139.5952  142.0401  161.6785 C.3     1  UNL1        0.0260
      4 C         139.5029  143.4493  162.1842 C.3     1  UNL1        0.0737
      5 C         139.0279  143.7149  163.5819 C.3     1  UNL1        0.0260
      6 C         138.6451  142.5714  164.4740 C.3     1  UNL1        0.0727
      7 C         139.4629  144.9037  162.5489 C.3     1  UNL1        0.0306
      8 C         139.9282  145.6926  161.3609 C.3     1  UNL1        0.0992
      9 N         140.2557  144.7256  160.2619 N.am    1  UNL1       -0.2516
     10 C         139.9929  143.3392  160.7707 C.2     1  UNL1        0.2289
     11 O         140.1861  142.0662  160.0012 O.2     1  UNL1       -0.2745
     12 C         140.7579  145.0823  158.8943 C.ar    1  UNL1        0.1141
     13 S         140.0861  146.0055  157.9215 S.2     1  UNL1        0.0292
     14 N         140.9330  146.0723  156.6853 N.ar    1  UNL1       -0.2055
     15 C         142.1283  145.1904  156.8940 C.ar    1  UNL1        0.1205
     16 C         142.0200  144.5785  158.2593 C.ar    1  UNL1        0.0986
     17 CL        143.0015  143.6295  158.8805 Cl      1  UNL1       -0.0787
     18 C         138.3546  140.0187  164.8604 C.3     1  UNL1        0.1063
     19 C         139.3817  139.3874  165.7529 C.3     1  UNL1        0.1483
     20 O         140.0508  138.1100  165.3399 O.3     1  UNL1       -0.3786
     21 H         140.6825  137.8398  166.0246 H       1  UNL1        0.2108
     22 C         141.7792  141.1819  165.9310 C.3     1  UNL1        0.0306
     23 C         140.9384  140.9307  167.1475 C.ar    1  UNL1       -0.0238
     24 C         139.7397  140.0335  167.0585 C.ar    1  UNL1        0.0015
     25 C         138.8989  139.7822  168.2751 C.ar    1  UNL1       -0.0020
     26 C         139.2568  140.4283  169.5806 C.ar    1  UNL1        0.0060
     27 C         140.4556  141.3255  169.6696 C.ar    1  UNL1        0.0748
     28 C         141.2963  141.5767  168.4530 C.ar    1  UNL1        0.0233
     29 C         142.4109  142.5018  168.8429 C.3     1  UNL1        0.2352
     30 O         142.2590  142.8223  170.3003 O.3     1  UNL1       -0.4404
     31 C         141.0505  142.0953  170.8112 C.2     1  UNL1        0.3413
     32 O         140.5286  142.1317  172.2171 O.2     1  UNL1       -0.2449
@<TRIPOS>BOND
     1    22    23    1
     2    23    24   ar
     3    24    19    1
     4    19    20    1
     5    19    18    1
     6    18     1    1
     7     1     2    1
     8     2     3    1
     9     3     4    1
    10     4     5    1
    11     5     6    1
    12     4     7    1
    13     7     8    1
    14     8     9    1
    15     9    12    1
    16    12    13   ar
    17    13    14   ar
    18    14    15   ar
    19    15    16   ar
    20    16    17    1
    21     9    10   am
    22    10    11    2
    23    24    25   ar
    24    25    26   ar
    25    26    27   ar
    26    27    28   ar
    27    28    29    1
    28    29    30    1
    29    30    31    1
    30    31    32    2
    31    28    23   ar
    32     6     1    1
    33    16    12   ar
    34    31    27    1
    35    10     4    1
    36    20    21    1
@<TRIPOS>MOLECULE
*****
 32 36 0 0 0
SMALL
GASTEIGER

@<TRIPOS>ATOM
      1 N         138.4703  139.2928  164.7736 N.3     1  UNL1       -0.2703
      2 C         138.0080  140.5446  164.0887 C.3     1  UNL1        0.0727
      3 C         138.0763  140.6507  162.5941 C.3     1  UNL1        0.0260
      4 C         138.6069  139.5050  161.7843 C.3     1  UNL1        0.0737
      5 C         139.0693  138.2532  162.4693 C.3     1  UNL1        0.0260
      6 C         139.0010  138.1471  163.9639 C.3     1  UNL1        0.0727
      7 C         139.1109  138.4474  160.8475 C.3     1  UNL1        0.0306
      8 C         138.9987  138.9761  159.4481 C.3     1  UNL1        0.0992
      9 N         138.4253  140.3604  159.5202 N.am    1  UNL1       -0.2516
     10 C         138.1832  140.6872  160.9640 C.2     1  UNL1        0.2289
     11 O         137.6169  141.9709  161.4944 O.2     1  UNL1       -0.2745
     12 C         138.1436  141.2598  158.3534 C.ar    1  UNL1        0.1141
     13 S         137.2413  140.9469  157.1967 S.2     1  UNL1        0.0292
     14 N         137.2547  142.1237  156.2668 N.ar    1  UNL1       -0.2055
     15 C         138.1653  143.1640  156.8487 C.ar    1  UNL1        0.1205
     16 C         138.7147  142.6300  158.1383 C.ar    1  UNL1        0.0986
     17 CL        139.6678  143.3414  159.0523 Cl      1  UNL1       -0.0787
     18 C         138.4021  139.1867  166.2684 C.3     1  UNL1        0.1063
     19 C         139.5464  139.6723  167.1078 C.3     1  UNL1        0.1483
     20 O         139.4067  139.7394  168.5997 O.3     1  UNL1       -0.3786
     21 H         140.2314  140.0720  168.9871 H       1  UNL1        0.2108
     22 C         140.0140  142.5570  166.4296 C.3     1  UNL1        0.0306
     23 C         141.0644  141.5331  166.1162 C.ar    1  UNL1       -0.0238
     24 C         140.8306  140.0908  166.4552 C.ar    1  UNL1        0.0015
     25 C         141.8810  139.0668  166.1418 C.ar    1  UNL1       -0.0020
     26 C         143.1652  139.4852  165.4892 C.ar    1  UNL1        0.0060
     27 C         143.3990  140.9276  165.1502 C.ar    1  UNL1        0.0748
     28 C         142.3486  141.9515  165.4636 C.ar    1  UNL1        0.0233
     29 C         142.8575  143.2896  165.0160 C.3     1  UNL1        0.2352
     30 O         144.2224  143.0928  164.4259 O.3     1  UNL1       -0.4404
     31 C         144.5570  141.6329  164.5088 C.2     1  UNL1        0.3413
     32 O         145.8268  140.9911  164.0338 O.2     1  UNL1       -0.2449
@<TRIPOS>BOND
     1    22    23    1
     2    23    24   ar
     3    24    19    1
     4    19    20    1
     5    19    18    1
     6    18     1    1
     7     1     2    1
     8     2     3    1
     9     3     4    1
    10     4     5    1
    11     5     6    1
    12     4     7    1
    13     7     8    1
    14     8     9    1
    15     9    12    1
    16    12    13   ar
    17    13    14   ar
    18    14    15   ar
    19    15    16   ar
    20    16    17    1
    21     9    10   am
    22    10    11    2
    23    24    25   ar
    24    25    26   ar
    25    26    27   ar
    26    27    28   ar
    27    28    29    1
    28    29    30    1
    29    30    31    1
    30    31    32    2
    31    28    23   ar
    32     6     1    1
    33    16    12   ar
    34    31    27    1
    35    10     4    1
    36    20    21    1
@<TRIPOS>MOLECULE
*****
 32 36 0 0 0
SMALL
GASTEIGER

@<TRIPOS>ATOM
      1 N         144.4301  141.6102  162.8513 N.3     1  UNL1       -0.2703
      2 C         143.8840  142.4566  163.9628 C.3     1  UNL1        0.0727
      3 C         143.4417  141.8164  165.2451 C.3     1  UNL1        0.0260
      4 C         143.5456  140.3298  165.4161 C.3     1  UNL1        0.0737
      5 C         144.0917  139.4834  164.3047 C.3     1  UNL1        0.0260
      6 C         144.5339  140.1236  163.0223 C.3     1  UNL1        0.0727
      7 C         143.5892  138.8638  165.7306 C.3     1  UNL1        0.0306
      8 C         143.0526  138.6712  167.1181 C.3     1  UNL1        0.0992
      9 N         142.6774  140.0182  167.6611 N.am    1  UNL1       -0.2516
     10 C         142.9820  141.0433  166.6093 C.2     1  UNL1        0.2289
     11 O         142.7618  142.5221  166.7293 O.2     1  UNL1       -0.2745
     12 C         142.0990  140.2921  169.0177 C.ar    1  UNL1        0.1141
     13 S         142.8748  140.6452  170.2520 S.2     1  UNL1        0.0292
     14 N         141.8986  140.8322  171.3754 N.ar    1  UNL1       -0.2055
     15 C         140.5194  140.5947  170.8355 C.ar    1  UNL1        0.1205
     16 C         140.6434  140.2609  169.3783 C.ar    1  UNL1        0.0986
     17 CL        139.5105  139.9504  168.4455 Cl      1  UNL1       -0.0787
     18 C         144.8723  142.2503  161.5689 C.3     1  UNL1        0.1063
     19 C         143.8539  142.6804  160.5551 C.3     1  UNL1        0.1483
     20 O         144.2456  142.8287  159.1148 O.3     1  UNL1       -0.3786
     21 H         143.4752  143.1112  158.5976 H       1  UNL1        0.2108
     22 C         141.7891  140.5070  160.4400 C.3     1  UNL1        0.0306
     23 C         141.4113  141.8756  160.9241 C.ar    1  UNL1       -0.0238
     24 C         142.4437  142.9623  160.9816 C.ar    1  UNL1        0.0015
     25 C         142.0659  144.3308  161.4657 C.ar    1  UNL1       -0.0020
     26 C         140.6557  144.6127  161.8922 C.ar    1  UNL1        0.0060
     27 C         139.6234  143.5260  161.8347 C.ar    1  UNL1        0.0748
     28 C         140.0012  142.1575  161.3506 C.ar    1  UNL1        0.0233
     29 C         138.7767  141.2927  161.4037 C.3     1  UNL1        0.2352
     30 O         137.6421  142.1267  161.9205 O.3     1  UNL1       -0.4404
     31 C         138.1654  143.5070  162.1869 C.2     1  UNL1        0.3413
     32 O         137.3704  144.6650  162.7131 O.2     1  UNL1       -0.2449
@<TRIPOS>BOND
     1    22    23    1
     2    23    24   ar
     3    24    19    1
     4    19    20    1
     5    19    18    1
     6    18     1    1
     7     1     2    1
     8     2     3    1
     9     3     4    1
    10     4     5    1
    11     5     6    1
    12     4     7    1
    13     7     8    1
    14     8     9    1
    15     9    12    1
    16    12    13   ar
    17    13    14   ar
    18    14    15   ar
    19    15    16   ar
    20    16    17    1
    21     9    10   am
    22    10    11    2
    23    24    25   ar
    24    25    26   ar
    25    26    27   ar
    26    27    28   ar
    27    28    29    1
    28    29    30    1
    29    30    31    1
    30    31    32    2
    31    28    23   ar
    32     6     1    1
    33    16    12   ar
    34    31    27    1
    35    10     4    1
    36    20    21    1
@<TRIPOS>MOLECULE
*****
 32 36 0 0 0
SMALL
GASTEIGER

@<TRIPOS>ATOM
      1 N         144.9744  141.5321  163.1962 N.3     1  UNL1       -0.2703
      2 C         144.6639  141.9427  161.7873 C.3     1  UNL1        0.0727
      3 C         144.0533  140.9566  160.8361 C.3     1  UNL1        0.0260
      4 C         143.7532  139.5600  161.2938 C.3     1  UNL1        0.0737
      5 C         144.0637  139.1495  162.7026 C.3     1  UNL1        0.0260
      6 C         144.6742  140.1355  163.6539 C.3     1  UNL1        0.0727
      7 C         143.3992  138.1363  161.6065 C.3     1  UNL1        0.0306
      8 C         142.8166  137.5209  160.3687 C.3     1  UNL1        0.0992
      9 N         142.8106  138.5643  159.2910 N.am    1  UNL1       -0.2516
     10 C         143.3895  139.8245  159.8627 C.2     1  UNL1        0.2289
     11 O         143.5725  141.1215  159.1318 O.2     1  UNL1       -0.2745
     12 C         142.3132  138.3799  157.8880 C.ar    1  UNL1        0.1141
     13 S         143.1628  138.3043  156.6541 S.2     1  UNL1        0.0292
     14 N         142.2535  138.1163  155.4761 N.ar    1  UNL1       -0.2055
     15 C         140.8419  138.0757  155.9818 C.ar    1  UNL1        0.1205
     16 C         140.8789  138.2386  157.4726 C.ar    1  UNL1        0.0986
     17 CL        139.6901  138.2570  158.3872 Cl      1  UNL1       -0.0787
     18 C         145.5849  142.5182  164.1475 C.3     1  UNL1        0.1063
     19 C         144.7048  143.4308  164.9490 C.3     1  UNL1        0.1483
     20 O         145.2364  144.0877  166.1884 O.3     1  UNL1       -0.3786
     21 H         144.5443  144.6406  166.5835 H       1  UNL1        0.2108
     22 C         142.4553  141.8372  166.1323 C.3     1  UNL1        0.0306
     23 C         142.1684  142.8898  165.1029 C.ar    1  UNL1       -0.0238
     24 C         143.2931  143.6866  164.5113 C.ar    1  UNL1        0.0015
     25 C         143.0061  144.7392  163.4818 C.ar    1  UNL1       -0.0020
     26 C         141.5945  144.9950  163.0440 C.ar    1  UNL1        0.0060
     27 C         140.4697  144.1982  163.6357 C.ar    1  UNL1        0.0748
     28 C         140.7567  143.1456  164.6651 C.ar    1  UNL1        0.0233
     29 C         139.4526  142.5233  165.0677 C.3     1  UNL1        0.2352
     30 O         138.3597  143.1912  164.2871 O.3     1  UNL1       -0.4404
     31 C         138.9883  144.2263  163.4021 C.2     1  UNL1        0.3413
     32 O         138.2629  145.1309  162.4504 O.2     1  UNL1       -0.2449
@<TRIPOS>BOND
     1    22    23    1
     2    23    24   ar
     3    24    19    1
     4    19    20    1
     5    19    18    1
     6    18     1    1
     7     1     2    1
     8     2     3    1
     9     3     4    1
    10     4     5    1
    11     5     6    1
    12     4     7    1
    13     7     8    1
    14     8     9    1
    15     9    12    1
    16    12    13   ar
    17    13    14   ar
    18    14    15   ar
    19    15    16   ar
    20    16    17    1
    21     9    10   am
    22    10    11    2
    23    24    25   ar
    24    25    26   ar
    25    26    27   ar
    26    27    28   ar
    27    28    29    1
    28    29    30    1
    29    30    31    1
    30    31    32    2
    31    28    23   ar
    32     6     1    1
    33    16    12   ar
    34    31    27    1
    35    10     4    1
    36    20    21    1
@<TRIPOS>MOLECULE
*****
 32 36 0 0 0
SMALL
GASTEIGER

@<TRIPOS>ATOM
      1 N         139.9546  143.8701  162.7933 N.3     1  UNL1       -0.2703
      2 C         140.7077  143.9683  164.0868 C.3     1  UNL1        0.0727
      3 C         140.4490  142.9770  165.1824 C.3     1  UNL1        0.0260
      4 C         139.4372  141.8875  164.9845 C.3     1  UNL1        0.0737
      5 C         138.6841  141.7892  163.6910 C.3     1  UNL1        0.0260
      6 C         138.9428  142.7805  162.5954 C.3     1  UNL1        0.0727
      7 C         138.4607  140.7500  164.9319 C.3     1  UNL1        0.0306
      8 C         138.5295  140.0191  166.2400 C.3     1  UNL1        0.0992
      9 N         139.5485  140.7049  167.1011 N.am    1  UNL1       -0.2516
     10 C         140.1094  141.8596  166.3252 C.2     1  UNL1        0.2289
     11 O         141.1584  142.8181  166.8055 O.2     1  UNL1       -0.2745
     12 C         139.9381  140.3061  168.4936 C.ar    1  UNL1        0.1141
     13 S         139.0350  140.2890  169.6911 S.2     1  UNL1        0.0292
     14 N         139.8379  139.8266  170.8707 N.ar    1  UNL1       -0.2055
     15 C         141.2374  139.5579  170.4023 C.ar    1  UNL1        0.1205
     16 C         141.2992  139.8543  168.9331 C.ar    1  UNL1        0.0986
     17 CL        142.5097  139.7220  168.0572 Cl      1  UNL1       -0.0787
     18 C         140.2134  144.8614  161.6977 C.3     1  UNL1        0.1063
     19 C         141.2428  144.5666  160.6473 C.3     1  UNL1        0.1483
     20 O         141.8590  145.6886  159.8653 O.3     1  UNL1       -0.3786
     21 H         142.4997  145.3280  159.2326 H       1  UNL1        0.2108
     22 C         143.6153  143.4017  162.0667 C.3     1  UNL1        0.0306
     23 C         142.8424  142.5674  161.0886 C.ar    1  UNL1       -0.0238
     24 C         141.6562  143.1499  160.3789 C.ar    1  UNL1        0.0015
     25 C         140.8833  142.3156  159.4008 C.ar    1  UNL1       -0.0020
     26 C         141.2966  140.8989  159.1323 C.ar    1  UNL1        0.0060
     27 C         142.4828  140.3165  159.8420 C.ar    1  UNL1        0.0748
     28 C         143.2557  141.1507  160.8201 C.ar    1  UNL1        0.0233
     29 C         144.3728  140.3108  161.3647 C.3     1  UNL1        0.2352
     30 O         144.2904  138.9574  160.7231 O.3     1  UNL1       -0.4404
     31 C         143.1223  138.9609  159.7821 C.2     1  UNL1        0.3413
     32 O         142.6726  137.8109  158.9306 O.2     1  UNL1       -0.2449
@<TRIPOS>BOND
     1    22    23    1
     2    23    24   ar
     3    24    19    1
     4    19    20    1
     5    19    18    1
     6    18     1    1
     7     1     2    1
     8     2     3    1
     9     3     4    1
    10     4     5    1
    11     5     6    1
    12     4     7    1
    13     7     8    1
    14     8     9    1
    15     9    12    1
    16    12    13   ar
    17    13    14   ar
    18    14    15   ar
    19    15    16   ar
    20    16    17    1
    21     9    10   am
    22    10    11    2
    23    24    25   ar
    24    25    26   ar
    25    26    27   ar
    26    27    28   ar
    27    28    29    1
    28    29    30    1
    29    30    31    1
    30    31    32    2
    31    28    23   ar
    32     6     1    1
    33    16    12   ar
    34    31    27    1
    35    10     4    1
    36    20    21    1
