@<TRIPOS>MOLECULE
*****
 34 38 0 0 0
SMALL
GASTEIGER

@<TRIPOS>ATOM
      1 C         140.4674  138.5036  160.2196 C.ar    1  UNL1        0.1233
      2 C         141.8641  138.5070  159.6724 C.ar    1  UNL1        0.1181
      3 N         141.7793  138.3396  158.1842 N.ar    1  UNL1       -0.2208
      4 N         140.3302  138.2328  157.8116 N.ar    1  UNL1       -0.0633
      5 N         139.5195  138.3341  159.0695 N.ar    1  UNL1       -0.1287
      6 C         138.6898  139.8121  163.5177 C.ar    1  UNL1        0.1547
      7 C         139.0715  139.6709  162.0740 C.ar    1  UNL1        0.0400
      8 C         140.0857  138.6448  161.6633 C.ar    1  UNL1        0.0241
      9 C         140.7182  137.7601  162.6963 C.ar    1  UNL1        0.0033
     10 C         140.3366  137.9013  164.1401 C.ar    1  UNL1        0.0207
     11 C         139.3224  138.9273  164.5507 C.ar    1  UNL1        0.0994
     12 N         138.9407  139.0686  165.9944 N.ar    1  UNL1       -0.2839
     13 C         137.8153  138.3547  166.6828 C.ar    1  UNL1        0.1826
     14 N         137.7965  138.7935  168.1171 N.ar    1  UNL1       -0.2280
     15 C         138.9102  139.7785  168.3152 C.ar    1  UNL1        0.0786
     16 C         139.2561  140.4718  169.5996 C.3     1  UNL1        0.0538
     17 C         139.6174  139.9486  167.0033 C.ar    1  UNL1        0.0963
     18 C         138.1166  142.2250  164.2918 C.3     1  UNL1        0.2525
     19 O         137.6757  140.8381  163.9284 O.3     1  UNL1       -0.4700
     20 C         142.9398  138.2881  157.2352 C.3     1  UNL1        0.2139
     21 C         143.1893  137.0527  156.4219 C.2     1  UNL1        0.2511
     22 O         144.4742  136.9014  155.6627 O.2     1  UNL1       -0.2726
     23 N         142.1541  135.9686  156.3678 N.am    1  UNL1       -0.2823
     24 H         141.3108  136.0679  156.8661 H       1  UNL1        0.1549
     25 C         142.4036  134.7332  155.5545 C.ar    1  UNL1        0.0503
     26 C         141.7528  134.5747  154.2124 C.ar    1  UNL1        0.0147
     27 C         142.0023  133.3392  153.3991 C.ar    1  UNL1        0.0013
     28 C         142.9026  132.2623  153.9279 C.ar    1  UNL1        0.0001
     29 C         143.5535  132.4208  155.2701 C.ar    1  UNL1        0.0012
     30 C         144.4537  131.3439  155.7989 C.ar    1  UNL1        0.0000
     31 C         145.1045  131.5024  157.1410 C.ar    1  UNL1        0.0000
     32 C         144.8550  132.7378  157.9543 C.ar    1  UNL1        0.0000
     33 C         143.9547  133.8147  157.4255 C.ar    1  UNL1        0.0012
     34 C         143.3039  133.6562  156.0834 C.ar    1  UNL1        0.0135
@<TRIPOS>BOND
     1    18    19    1
     2    19     6    1
     3     6     7   ar
     4     7     8   ar
     5     8     1    1
     6     1     2   ar
     7     2     3   ar
     8     3    20    1
     9    20    21    1
    10    21    22    2
    11    21    23   am
    12    23    25    1
    13    25    26   ar
    14    26    27   ar
    15    27    28   ar
    16    28    29   ar
    17    29    30   ar
    18    30    31   ar
    19    31    32   ar
    20    32    33   ar
    21    33    34   ar
    22     3     4   ar
    23     4     5   ar
    24     8     9   ar
    25     9    10   ar
    26    10    11   ar
    27    11    12    1
    28    12    13   ar
    29    13    14   ar
    30    14    15   ar
    31    15    16    1
    32    15    17   ar
    33    11     6   ar
    34    17    12   ar
    35     5     1   ar
    36    34    25   ar
    37    34    29   ar
    38    23    24    1
@<TRIPOS>MOLECULE
*****
 34 38 0 0 0
SMALL
GASTEIGER

@<TRIPOS>ATOM
      1 C         140.3890  138.5131  159.6871 C.ar    1  UNL1        0.1233
      2 C         141.7582  138.3926  159.0860 C.ar    1  UNL1        0.1181
      3 N         141.6022  138.2647  157.5997 N.ar    1  UNL1       -0.2208
      4 N         140.1368  138.3061  157.2820 N.ar    1  UNL1       -0.0633
      5 N         139.3870  138.4596  158.5721 N.ar    1  UNL1       -0.1287
      6 C         138.6349  139.6925  163.0459 C.ar    1  UNL1        0.1547
      7 C         138.9471  139.5445  161.5862 C.ar    1  UNL1        0.0400
      8 C         140.0768  138.6610  161.1467 C.ar    1  UNL1        0.0241
      9 C         140.8943  137.9254  162.1669 C.ar    1  UNL1        0.0033
     10 C         140.5821  138.0734  163.6265 C.ar    1  UNL1        0.0207
     11 C         139.4524  138.9569  164.0660 C.ar    1  UNL1        0.0994
     12 N         139.1402  139.1048  165.5257 N.ar    1  UNL1       -0.2839
     13 C         138.0082  138.4456  166.2564 C.ar    1  UNL1        0.1826
     14 N         138.0736  138.8714  167.6933 N.ar    1  UNL1       -0.2280
     15 C         139.2460  139.7937  167.8506 C.ar    1  UNL1        0.0786
     16 C         139.6825  140.4556  169.1239 C.3     1  UNL1        0.0538
     17 C         139.9052  139.9380  166.5110 C.ar    1  UNL1        0.0963
     18 C         137.4969  142.0273  163.1062 C.3     1  UNL1        0.2525
     19 O         137.5053  140.5760  163.4854 O.3     1  UNL1       -0.4700
     20 C         142.7161  138.1206  156.6055 C.3     1  UNL1        0.2139
     21 C         143.3540  136.7814  156.3826 C.2     1  UNL1        0.2511
     22 O         144.6843  136.6893  155.6957 O.2     1  UNL1       -0.2726
     23 N         142.6616  135.5344  156.8467 N.am    1  UNL1       -0.2823
     24 H         141.7885  135.5948  157.2976 H       1  UNL1        0.1549
     25 C         143.2994  134.1951  156.6239 C.ar    1  UNL1        0.0503
     26 C         144.1993  133.6094  157.6713 C.ar    1  UNL1        0.0147
     27 C         144.8371  132.2702  157.4485 C.ar    1  UNL1        0.0013
     28 C         144.5751  131.5167  156.1783 C.ar    1  UNL1        0.0001
     29 C         143.6752  132.1024  155.1308 C.ar    1  UNL1        0.0012
     30 C         143.4132  131.3489  153.8605 C.ar    1  UNL1        0.0000
     31 C         142.5133  131.9346  152.8131 C.ar    1  UNL1        0.0000
     32 C         141.8755  133.2739  153.0359 C.ar    1  UNL1        0.0000
     33 C         142.1375  134.0274  154.3062 C.ar    1  UNL1        0.0012
     34 C         143.0374  133.4416  155.3536 C.ar    1  UNL1        0.0135
@<TRIPOS>BOND
     1    18    19    1
     2    19     6    1
     3     6     7   ar
     4     7     8   ar
     5     8     1    1
     6     1     2   ar
     7     2     3   ar
     8     3    20    1
     9    20    21    1
    10    21    22    2
    11    21    23   am
    12    23    25    1
    13    25    26   ar
    14    26    27   ar
    15    27    28   ar
    16    28    29   ar
    17    29    30   ar
    18    30    31   ar
    19    31    32   ar
    20    32    33   ar
    21    33    34   ar
    22     3     4   ar
    23     4     5   ar
    24     8     9   ar
    25     9    10   ar
    26    10    11   ar
    27    11    12    1
    28    12    13   ar
    29    13    14   ar
    30    14    15   ar
    31    15    16    1
    32    15    17   ar
    33    11     6   ar
    34    17    12   ar
    35     5     1   ar
    36    34    25   ar
    37    34    29   ar
    38    23    24    1
@<TRIPOS>MOLECULE
*****
 34 38 0 0 0
SMALL
GASTEIGER

@<TRIPOS>ATOM
      1 C         140.3212  138.5802  159.6367 C.ar    1  UNL1        0.1233
      2 C         141.6825  138.4277  159.0254 C.ar    1  UNL1        0.1181
      3 N         141.5140  138.3256  157.5384 N.ar    1  UNL1       -0.2208
      4 N         140.0487  138.4149  157.2306 N.ar    1  UNL1       -0.0633
      5 N         139.3114  138.5723  158.5274 N.ar    1  UNL1       -0.1287
      6 C         140.6053  138.1830  163.5751 C.ar    1  UNL1        0.1547
      7 C         140.9043  138.0466  162.1116 C.ar    1  UNL1        0.0400
      8 C         140.0222  138.7166  161.1002 C.ar    1  UNL1        0.0241
      9 C         138.8410  139.5230  161.5524 C.ar    1  UNL1        0.0033
     10 C         138.5419  139.6595  163.0160 C.ar    1  UNL1        0.0207
     11 C         139.4241  138.9894  164.0273 C.ar    1  UNL1        0.0994
     12 N         139.1251  139.1259  165.4908 N.ar    1  UNL1       -0.2839
     13 C         138.0827  138.3623  166.2527 C.ar    1  UNL1        0.1826
     14 N         138.1293  138.8144  167.6822 N.ar    1  UNL1       -0.2280
     15 C         139.2006  139.8573  167.8039 C.ar    1  UNL1        0.0786
     16 C         139.5883  140.5806  169.0594 C.3     1  UNL1        0.0538
     17 C         139.8160  140.0498  166.4496 C.ar    1  UNL1        0.0963
     18 C         142.6990  138.2237  165.1129 C.3     1  UNL1        0.2525
     19 O         141.4875  137.5130  164.5865 O.3     1  UNL1       -0.4700
     20 C         142.6173  138.1626  156.5352 C.3     1  UNL1        0.2139
     21 C         143.2858  136.8306  156.3653 C.2     1  UNL1        0.2511
     22 O         144.6607  136.7519  155.7707 O.2     1  UNL1       -0.2726
     23 N         142.5794  135.5774  156.7899 N.am    1  UNL1       -0.2823
     24 H         141.6771  135.6291  157.1801 H       1  UNL1        0.1549
     25 C         143.2479  134.2454  156.6200 C.ar    1  UNL1        0.0503
     26 C         144.1325  133.7063  157.7048 C.ar    1  UNL1        0.0147
     27 C         144.8010  132.3743  157.5349 C.ar    1  UNL1        0.0013
     28 C         144.5849  131.5814  156.2802 C.ar    1  UNL1        0.0001
     29 C         143.7003  132.1204  155.1952 C.ar    1  UNL1        0.0012
     30 C         143.4842  131.3274  153.9405 C.ar    1  UNL1        0.0000
     31 C         142.5997  131.8665  152.8556 C.ar    1  UNL1        0.0000
     32 C         141.9312  133.1985  153.0255 C.ar    1  UNL1        0.0000
     33 C         142.1472  133.9914  154.2803 C.ar    1  UNL1        0.0012
     34 C         143.0318  133.4524  155.3651 C.ar    1  UNL1        0.0135
@<TRIPOS>BOND
     1    18    19    1
     2    19     6    1
     3     6     7   ar
     4     7     8   ar
     5     8     1    1
     6     1     2   ar
     7     2     3   ar
     8     3    20    1
     9    20    21    1
    10    21    22    2
    11    21    23   am
    12    23    25    1
    13    25    26   ar
    14    26    27   ar
    15    27    28   ar
    16    28    29   ar
    17    29    30   ar
    18    30    31   ar
    19    31    32   ar
    20    32    33   ar
    21    33    34   ar
    22     3     4   ar
    23     4     5   ar
    24     8     9   ar
    25     9    10   ar
    26    10    11   ar
    27    11    12    1
    28    12    13   ar
    29    13    14   ar
    30    14    15   ar
    31    15    16    1
    32    15    17   ar
    33    11     6   ar
    34    17    12   ar
    35     5     1   ar
    36    34    25   ar
    37    34    29   ar
    38    23    24    1
@<TRIPOS>MOLECULE
*****
 34 38 0 0 0
SMALL
GASTEIGER

@<TRIPOS>ATOM
      1 C         143.2453  138.9289  159.6405 C.ar    1  UNL1        0.1233
      2 C         142.3770  138.0994  158.7415 C.ar    1  UNL1        0.1181
      3 N         142.7516  138.4075  157.3220 N.ar    1  UNL1       -0.2208
      4 N         143.8513  139.4274  157.3437 N.ar    1  UNL1       -0.0633
      5 N         144.1565  139.7496  158.7765 N.ar    1  UNL1       -0.1287
      6 C         144.1305  139.8042  163.4087 C.ar    1  UNL1        0.1547
      7 C         144.1670  139.7968  161.9092 C.ar    1  UNL1        0.0400
      8 C         143.2088  138.9364  161.1400 C.ar    1  UNL1        0.0241
      9 C         142.2142  138.0835  161.8703 C.ar    1  UNL1        0.0033
     10 C         142.1777  138.0909  163.3698 C.ar    1  UNL1        0.0207
     11 C         143.1359  138.9513  164.1390 C.ar    1  UNL1        0.0994
     12 N         143.0994  138.9588  165.6385 N.ar    1  UNL1       -0.2839
     13 C         143.7544  137.9559  166.5414 C.ar    1  UNL1        0.1826
     14 N         143.4613  138.3478  167.9594 N.ar    1  UNL1       -0.2280
     15 C         142.6252  139.5928  167.9329 C.ar    1  UNL1        0.0786
     16 C         142.1043  140.3307  169.1304 C.3     1  UNL1        0.0538
     17 C         142.4015  139.9705  166.4985 C.ar    1  UNL1        0.0963
     18 C         145.7377  141.8428  163.5142 C.3     1  UNL1        0.2525
     19 O         145.0887  140.6646  164.1779 O.3     1  UNL1       -0.4700
     20 C         142.1346  137.8020  156.0961 C.3     1  UNL1        0.2139
     21 C         142.6692  136.5130  155.5461 C.2     1  UNL1        0.2511
     22 O         144.0674  136.4503  155.0064 O.2     1  UNL1       -0.2726
     23 N         141.8057  135.2865  155.5358 N.am    1  UNL1       -0.2823
     24 H         140.8880  135.3276  155.8901 H       1  UNL1        0.1549
     25 C         142.3402  133.9974  154.9858 C.ar    1  UNL1        0.0503
     26 C         141.9082  133.5242  153.6296 C.ar    1  UNL1        0.0147
     27 C         142.4428  132.2352  153.0796 C.ar    1  UNL1        0.0013
     28 C         143.4094  131.4193  153.8858 C.ar    1  UNL1        0.0001
     29 C         143.8414  131.8925  155.2421 C.ar    1  UNL1        0.0012
     30 C         144.8080  131.0766  156.0484 C.ar    1  UNL1        0.0000
     31 C         145.2400  131.5498  157.4046 C.ar    1  UNL1        0.0000
     32 C         144.7054  132.8389  157.9546 C.ar    1  UNL1        0.0000
     33 C         143.7388  133.6548  157.1484 C.ar    1  UNL1        0.0012
     34 C         143.3069  133.1816  155.7921 C.ar    1  UNL1        0.0135
@<TRIPOS>BOND
     1    18    19    1
     2    19     6    1
     3     6     7   ar
     4     7     8   ar
     5     8     1    1
     6     1     2   ar
     7     2     3   ar
     8     3    20    1
     9    20    21    1
    10    21    22    2
    11    21    23   am
    12    23    25    1
    13    25    26   ar
    14    26    27   ar
    15    27    28   ar
    16    28    29   ar
    17    29    30   ar
    18    30    31   ar
    19    31    32   ar
    20    32    33   ar
    21    33    34   ar
    22     3     4   ar
    23     4     5   ar
    24     8     9   ar
    25     9    10   ar
    26    10    11   ar
    27    11    12    1
    28    12    13   ar
    29    13    14   ar
    30    14    15   ar
    31    15    16    1
    32    15    17   ar
    33    11     6   ar
    34    17    12   ar
    35     5     1   ar
    36    34    25   ar
    37    34    29   ar
    38    23    24    1
@<TRIPOS>MOLECULE
*****
 34 38 0 0 0
SMALL
GASTEIGER

@<TRIPOS>ATOM
      1 C         142.9491  139.0531  160.3688 C.ar    1  UNL1        0.1233
      2 C         142.3188  138.0579  159.4400 C.ar    1  UNL1        0.1181
      3 N         142.8609  138.3013  158.0627 N.ar    1  UNL1       -0.2208
      4 N         143.8262  139.4469  158.1402 N.ar    1  UNL1       -0.0633
      5 N         143.8807  139.9115  159.5654 N.ar    1  UNL1       -0.1287
      6 C         142.8013  140.5456  164.0430 C.ar    1  UNL1        0.1547
      7 C         143.0576  140.4293  162.5696 C.ar    1  UNL1        0.0400
      8 C         142.6928  139.1694  161.8421 C.ar    1  UNL1        0.0241
      9 C         142.0715  138.0257  162.5879 C.ar    1  UNL1        0.0033
     10 C         141.8152  138.1420  164.0612 C.ar    1  UNL1        0.0207
     11 C         142.1801  139.4020  164.7888 C.ar    1  UNL1        0.0994
     12 N         141.9238  139.5183  166.2621 N.ar    1  UNL1       -0.2839
     13 C         142.8928  139.1776  167.3552 C.ar    1  UNL1        0.1826
     14 N         142.2213  139.4445  168.6697 N.ar    1  UNL1       -0.2280
     15 C         140.8373  139.9500  168.3890 C.ar    1  UNL1        0.0786
     16 C         139.8164  140.3413  169.4160 C.3     1  UNL1        0.0538
     17 C         140.6534  139.9957  166.9011 C.ar    1  UNL1        0.0963
     18 C         144.4214  142.5434  164.4097 C.3     1  UNL1        0.2525
     19 O         143.1662  141.8056  164.7705 O.3     1  UNL1       -0.4700
     20 C         142.5009  137.5339  156.8252 C.3     1  UNL1        0.2139
     21 C         143.2309  136.2672  156.4893 C.2     1  UNL1        0.2511
     22 O         144.5429  136.3273  155.7645 O.2     1  UNL1       -0.2726
     23 N         142.6489  134.9406  156.8780 N.am    1  UNL1       -0.2823
     24 H         141.7878  134.9011  157.3536 H       1  UNL1        0.1549
     25 C         143.3788  133.6739  156.5421 C.ar    1  UNL1        0.0503
     26 C         144.3911  133.1156  157.4979 C.ar    1  UNL1        0.0147
     27 C         145.1210  131.8490  157.1620 C.ar    1  UNL1        0.0013
     28 C         144.8388  131.1407  155.8703 C.ar    1  UNL1        0.0001
     29 C         143.8265  131.6990  154.9144 C.ar    1  UNL1        0.0012
     30 C         143.5442  130.9907  153.6227 C.ar    1  UNL1        0.0000
     31 C         142.5319  131.5490  152.6669 C.ar    1  UNL1        0.0000
     32 C         141.8020  132.8156  153.0028 C.ar    1  UNL1        0.0000
     33 C         142.0843  133.5239  154.2945 C.ar    1  UNL1        0.0012
     34 C         143.0965  132.9656  155.2503 C.ar    1  UNL1        0.0135
@<TRIPOS>BOND
     1    18    19    1
     2    19     6    1
     3     6     7   ar
     4     7     8   ar
     5     8     1    1
     6     1     2   ar
     7     2     3   ar
     8     3    20    1
     9    20    21    1
    10    21    22    2
    11    21    23   am
    12    23    25    1
    13    25    26   ar
    14    26    27   ar
    15    27    28   ar
    16    28    29   ar
    17    29    30   ar
    18    30    31   ar
    19    31    32   ar
    20    32    33   ar
    21    33    34   ar
    22     3     4   ar
    23     4     5   ar
    24     8     9   ar
    25     9    10   ar
    26    10    11   ar
    27    11    12    1
    28    12    13   ar
    29    13    14   ar
    30    14    15   ar
    31    15    16    1
    32    15    17   ar
    33    11     6   ar
    34    17    12   ar
    35     5     1   ar
    36    34    25   ar
    37    34    29   ar
    38    23    24    1
@<TRIPOS>MOLECULE
*****
 34 38 0 0 0
SMALL
GASTEIGER

@<TRIPOS>ATOM
      1 C         140.0666  143.8426  161.6665 C.ar    1  UNL1        0.1233
      2 C         140.1308  143.2213  160.3026 C.ar    1  UNL1        0.1181
      3 N         139.9523  144.3115  159.2879 N.ar    1  UNL1       -0.2208
      4 N         139.7778  145.6064  160.0245 N.ar    1  UNL1       -0.0633
      5 N         139.8484  145.3167  161.4945 N.ar    1  UNL1       -0.1287
      6 C         140.2074  140.8973  164.3226 C.ar    1  UNL1        0.1547
      7 C         140.0764  141.6227  163.0162 C.ar    1  UNL1        0.0400
      8 C         140.1976  143.1171  162.9728 C.ar    1  UNL1        0.0241
      9 C         140.4498  143.8862  164.2358 C.ar    1  UNL1        0.0033
     10 C         140.5808  143.1607  165.5421 C.ar    1  UNL1        0.0207
     11 C         140.4596  141.6663  165.5855 C.ar    1  UNL1        0.0994
     12 N         140.5906  140.9409  166.8919 N.ar    1  UNL1       -0.2839
     13 C         139.4588  140.4512  167.7458 C.ar    1  UNL1        0.1826
     14 N         140.0451  139.7854  168.9554 N.ar    1  UNL1       -0.2280
     15 C         141.5393  139.8636  168.8490 C.ar    1  UNL1        0.0786
     16 C         142.5235  139.3227  169.8433 C.3     1  UNL1        0.0538
     17 C         141.8764  140.5777  167.5737 C.ar    1  UNL1        0.0963
     18 C         138.7389  138.7556  164.2399 C.3     1  UNL1        0.2525
     19 O         140.0862  139.4028  164.3660 O.3     1  UNL1       -0.4700
     20 C         139.9489  144.1372  157.7980 C.3     1  UNL1        0.2139
     21 C         140.3380  145.2804  156.9083 C.2     1  UNL1        0.2511
     22 O         141.6021  146.0424  157.1757 O.2     1  UNL1       -0.2726
     23 N         139.4630  145.6617  155.7511 N.am    1  UNL1       -0.2823
     24 H         138.6334  145.1616  155.5756 H       1  UNL1        0.1549
     25 C         139.8521  146.8049  154.8614 C.ar    1  UNL1        0.0503
     26 C         140.6534  146.5497  153.6194 C.ar    1  UNL1        0.0147
     27 C         141.0424  147.6929  152.7296 C.ar    1  UNL1        0.0013
     28 C         140.6302  149.0914  153.0819 C.ar    1  UNL1        0.0001
     29 C         139.8288  149.3468  154.3240 C.ar    1  UNL1        0.0012
     30 C         139.4166  150.7453  154.6763 C.ar    1  UNL1        0.0000
     31 C         138.6153  151.0005  155.9184 C.ar    1  UNL1        0.0000
     32 C         138.2262  149.8573  156.8081 C.ar    1  UNL1        0.0000
     33 C         138.6385  148.4588  156.4558 C.ar    1  UNL1        0.0012
     34 C         139.4398  148.2035  155.2138 C.ar    1  UNL1        0.0135
@<TRIPOS>BOND
     1    18    19    1
     2    19     6    1
     3     6     7   ar
     4     7     8   ar
     5     8     1    1
     6     1     2   ar
     7     2     3   ar
     8     3    20    1
     9    20    21    1
    10    21    22    2
    11    21    23   am
    12    23    25    1
    13    25    26   ar
    14    26    27   ar
    15    27    28   ar
    16    28    29   ar
    17    29    30   ar
    18    30    31   ar
    19    31    32   ar
    20    32    33   ar
    21    33    34   ar
    22     3     4   ar
    23     4     5   ar
    24     8     9   ar
    25     9    10   ar
    26    10    11   ar
    27    11    12    1
    28    12    13   ar
    29    13    14   ar
    30    14    15   ar
    31    15    16    1
    32    15    17   ar
    33    11     6   ar
    34    17    12   ar
    35     5     1   ar
    36    34    25   ar
    37    34    29   ar
    38    23    24    1
@<TRIPOS>MOLECULE
*****
 34 38 0 0 0
SMALL
GASTEIGER

@<TRIPOS>ATOM
      1 C         142.3225  142.3863  160.8741 C.ar    1  UNL1        0.1233
      2 C         141.3578  142.7687  161.9573 C.ar    1  UNL1        0.1181
      3 N         141.8399  144.0467  162.5774 N.ar    1  UNL1       -0.2208
      4 N         143.1025  144.4541  161.8775 N.ar    1  UNL1       -0.0633
      5 N         143.4008  143.4280  160.8248 N.ar    1  UNL1       -0.1287
      6 C         143.1692  139.7162  158.0629 C.ar    1  UNL1        0.1547
      7 C         143.2658  140.9275  158.9423 C.ar    1  UNL1        0.0400
      8 C         142.2259  141.1751  159.9947 C.ar    1  UNL1        0.0241
      9 C         141.0895  140.2114  160.1676 C.ar    1  UNL1        0.0033
     10 C         140.9929  139.0001  159.2881 C.ar    1  UNL1        0.0207
     11 C         142.0328  138.7525  158.2358 C.ar    1  UNL1        0.0994
     12 N         141.9362  137.5412  157.3564 N.ar    1  UNL1       -0.2839
     13 C         140.8772  137.2817  156.3262 C.ar    1  UNL1        0.1826
     14 N         141.1682  135.9568  155.6859 N.ar    1  UNL1       -0.2280
     15 C         142.4070  135.3975  156.3202 C.ar    1  UNL1        0.0786
     16 C         143.0571  134.0888  155.9816 C.3     1  UNL1        0.0538
     17 C         142.8817  136.3766  157.3526 C.ar    1  UNL1        0.0963
     18 C         145.0154  140.6118  156.4693 C.3     1  UNL1        0.2525
     19 O         144.2090  139.4686  157.0106 O.3     1  UNL1       -0.4700
     20 C         141.1758  144.7871  163.7003 C.3     1  UNL1        0.2139
     21 C         140.5683  144.0287  164.8430 C.2     1  UNL1        0.2511
     22 O         139.1885  144.3715  165.3214 O.2     1  UNL1       -0.2726
     23 N         141.3405  142.9276  165.5072 N.am    1  UNL1       -0.2823
     24 H         142.2460  142.7026  165.1932 H       1  UNL1        0.1549
     25 C         140.7329  142.1692  166.6499 C.ar    1  UNL1        0.0503
     26 C         140.9568  142.6305  168.0595 C.ar    1  UNL1        0.0147
     27 C         140.3492  141.8721  169.2022 C.ar    1  UNL1        0.0013
     28 C         139.5179  140.6524  168.9353 C.ar    1  UNL1        0.0001
     29 C         139.2940  140.1911  167.5256 C.ar    1  UNL1        0.0012
     30 C         138.4627  138.9715  167.2587 C.ar    1  UNL1        0.0000
     31 C         138.2388  138.5103  165.8490 C.ar    1  UNL1        0.0000
     32 C         138.8464  139.2687  164.7063 C.ar    1  UNL1        0.0000
     33 C         139.6777  140.4883  164.9733 C.ar    1  UNL1        0.0012
     34 C         139.9015  140.9495  166.3829 C.ar    1  UNL1        0.0135
@<TRIPOS>BOND
     1    18    19    1
     2    19     6    1
     3     6     7   ar
     4     7     8   ar
     5     8     1    1
     6     1     2   ar
     7     2     3   ar
     8     3    20    1
     9    20    21    1
    10    21    22    2
    11    21    23   am
    12    23    25    1
    13    25    26   ar
    14    26    27   ar
    15    27    28   ar
    16    28    29   ar
    17    29    30   ar
    18    30    31   ar
    19    31    32   ar
    20    32    33   ar
    21    33    34   ar
    22     3     4   ar
    23     4     5   ar
    24     8     9   ar
    25     9    10   ar
    26    10    11   ar
    27    11    12    1
    28    12    13   ar
    29    13    14   ar
    30    14    15   ar
    31    15    16    1
    32    15    17   ar
    33    11     6   ar
    34    17    12   ar
    35     5     1   ar
    36    34    25   ar
    37    34    29   ar
    38    23    24    1
@<TRIPOS>MOLECULE
*****
 34 38 0 0 0
SMALL
GASTEIGER

@<TRIPOS>ATOM
      1 C         141.0218  144.3255  160.8236 C.ar    1  UNL1        0.1233
      2 C         140.7572  143.8596  162.2247 C.ar    1  UNL1        0.1181
      3 N         139.6332  144.6819  162.7820 N.ar    1  UNL1       -0.2208
      4 N         139.2032  145.6559  161.7255 N.ar    1  UNL1       -0.0633
      5 N         140.0614  145.4357  160.5151 N.ar    1  UNL1       -0.1287
      6 C         143.0272  143.5192  157.4952 C.ar    1  UNL1        0.1547
      7 C         141.9851  144.0672  158.4246 C.ar    1  UNL1        0.0400
      8 C         142.0639  143.7775  159.8942 C.ar    1  UNL1        0.0241
      9 C         143.1848  142.9398  160.4345 C.ar    1  UNL1        0.0033
     10 C         144.2269  142.3918  159.5052 C.ar    1  UNL1        0.0207
     11 C         144.1481  142.6815  158.0355 C.ar    1  UNL1        0.0994
     12 N         145.1902  142.1335  157.1062 N.ar    1  UNL1       -0.2839
     13 C         145.0040  140.9980  156.1439 C.ar    1  UNL1        0.1826
     14 N         146.3002  140.7875  155.4189 N.ar    1  UNL1       -0.2280
     15 C         147.2875  141.7929  155.9331 C.ar    1  UNL1        0.0786
     16 C         148.7109  141.9405  155.4835 C.3     1  UNL1        0.0538
     17 C         146.6015  142.6247  156.9759 C.ar    1  UNL1        0.0963
     18 C         141.6699  144.3186  155.4291 C.3     1  UNL1        0.2525
     19 O         142.9484  143.8089  156.0256 O.3     1  UNL1       -0.4700
     20 C         139.0429  144.5526  164.1550 C.3     1  UNL1        0.2139
     21 C         139.3832  143.3675  165.0091 C.2     1  UNL1        0.2511
     22 O         138.4550  142.1903  165.0626 O.2     1  UNL1       -0.2726
     23 N         140.6515  143.3595  165.8098 N.am    1  UNL1       -0.2823
     24 H         141.2607  144.1321  165.7747 H       1  UNL1        0.1549
     25 C         140.9918  142.1744  166.6640 C.ar    1  UNL1        0.0503
     26 C         140.4071  142.0486  168.0396 C.ar    1  UNL1        0.0147
     27 C         140.7474  140.8635  168.8937 C.ar    1  UNL1        0.0013
     28 C         141.6724  139.8041  168.3724 C.ar    1  UNL1        0.0001
     29 C         142.2572  139.9298  166.9967 C.ar    1  UNL1        0.0012
     30 C         143.1823  138.8704  166.4754 C.ar    1  UNL1        0.0000
     31 C         143.7670  138.9961  165.0998 C.ar    1  UNL1        0.0000
     32 C         143.4267  140.1812  164.2456 C.ar    1  UNL1        0.0000
     33 C         142.5017  141.2407  164.7670 C.ar    1  UNL1        0.0012
     34 C         141.9169  141.1149  166.1425 C.ar    1  UNL1        0.0135
@<TRIPOS>BOND
     1    18    19    1
     2    19     6    1
     3     6     7   ar
     4     7     8   ar
     5     8     1    1
     6     1     2   ar
     7     2     3   ar
     8     3    20    1
     9    20    21    1
    10    21    22    2
    11    21    23   am
    12    23    25    1
    13    25    26   ar
    14    26    27   ar
    15    27    28   ar
    16    28    29   ar
    17    29    30   ar
    18    30    31   ar
    19    31    32   ar
    20    32    33   ar
    21    33    34   ar
    22     3     4   ar
    23     4     5   ar
    24     8     9   ar
    25     9    10   ar
    26    10    11   ar
    27    11    12    1
    28    12    13   ar
    29    13    14   ar
    30    14    15   ar
    31    15    16    1
    32    15    17   ar
    33    11     6   ar
    34    17    12   ar
    35     5     1   ar
    36    34    25   ar
    37    34    29   ar
    38    23    24    1
@<TRIPOS>MOLECULE
*****
 34 38 0 0 0
SMALL
GASTEIGER

@<TRIPOS>ATOM
      1 C         143.2481  137.1476  156.3598 C.ar    1  UNL1        0.1233
      2 C         142.2927  137.9019  157.2365 C.ar    1  UNL1        0.1181
      3 N         142.8311  139.2895  157.4225 N.ar    1  UNL1       -0.2208
      4 N         144.1192  139.3929  156.6608 N.ar    1  UNL1       -0.0633
      5 N         144.3769  138.0692  156.0041 N.ar    1  UNL1       -0.1287
      6 C         143.2459  133.1797  156.4310 C.ar    1  UNL1        0.1547
      7 C         143.3934  134.6051  156.8741 C.ar    1  UNL1        0.0400
      8 C         143.1006  135.7222  155.9168 C.ar    1  UNL1        0.0241
      9 C         142.6603  135.4138  154.5164 C.ar    1  UNL1        0.0033
     10 C         142.5127  133.9884  154.0734 C.ar    1  UNL1        0.0207
     11 C         142.8055  132.8713  155.0307 C.ar    1  UNL1        0.0994
     12 N         142.6580  131.4459  154.5876 N.ar    1  UNL1       -0.2839
     13 C         141.4744  130.5608  154.8441 C.ar    1  UNL1        0.1826
     14 N         141.7531  129.2231  154.2253 N.ar    1  UNL1       -0.2280
     15 C         143.1089  129.2814  153.5863 C.ar    1  UNL1        0.0786
     16 C         143.7865  128.1625  152.8522 C.3     1  UNL1        0.0538
     17 C         143.6682  130.6551  153.8102 C.ar    1  UNL1        0.0963
     18 C         144.9396  131.5462  157.5325 C.3     1  UNL1        0.2525
     19 O         143.5387  132.0627  157.3884 O.3     1  UNL1       -0.4700
     20 C         142.1933  140.3820  158.2286 C.3     1  UNL1        0.2139
     21 C         142.4302  140.4585  159.7078 C.2     1  UNL1        0.2511
     22 O         141.6388  141.4189  160.5454 O.2     1  UNL1       -0.2726
     23 N         143.4583  139.5746  160.3495 N.am    1  UNL1       -0.2823
     24 H         143.9777  138.9443  159.7997 H       1  UNL1        0.1549
     25 C         143.6952  139.6511  161.8287 C.ar    1  UNL1        0.0503
     26 C         144.7802  140.5342  162.3698 C.ar    1  UNL1        0.0147
     27 C         145.0170  140.6107  163.8490 C.ar    1  UNL1        0.0013
     28 C         144.1689  139.8041  164.7871 C.ar    1  UNL1        0.0001
     29 C         143.0838  138.9210  164.2460 C.ar    1  UNL1        0.0012
     30 C         142.2357  138.1144  165.1840 C.ar    1  UNL1        0.0000
     31 C         141.1507  137.2313  164.6429 C.ar    1  UNL1        0.0000
     32 C         140.9138  137.1548  163.1637 C.ar    1  UNL1        0.0000
     33 C         141.7620  137.9614  162.2256 C.ar    1  UNL1        0.0012
     34 C         142.8470  138.8445  162.7668 C.ar    1  UNL1        0.0135
@<TRIPOS>BOND
     1    18    19    1
     2    19     6    1
     3     6     7   ar
     4     7     8   ar
     5     8     1    1
     6     1     2   ar
     7     2     3   ar
     8     3    20    1
     9    20    21    1
    10    21    22    2
    11    21    23   am
    12    23    25    1
    13    25    26   ar
    14    26    27   ar
    15    27    28   ar
    16    28    29   ar
    17    29    30   ar
    18    30    31   ar
    19    31    32   ar
    20    32    33   ar
    21    33    34   ar
    22     3     4   ar
    23     4     5   ar
    24     8     9   ar
    25     9    10   ar
    26    10    11   ar
    27    11    12    1
    28    12    13   ar
    29    13    14   ar
    30    14    15   ar
    31    15    16    1
    32    15    17   ar
    33    11     6   ar
    34    17    12   ar
    35     5     1   ar
    36    34    25   ar
    37    34    29   ar
    38    23    24    1
