@<TRIPOS>MOLECULE
*****
 26 28 0 0 0
SMALL
GASTEIGER

@<TRIPOS>ATOM
      1 C         140.8761  144.6487  163.3926 C.3     1  UNL1        0.0716
      2 C         141.9161  143.6726  163.8571 C.3     1  UNL1        0.0199
      3 C         141.6911  142.8752  165.1075 C.3     1  UNL1        0.0060
      4 C         140.4261  143.0539  165.8935 C.3     1  UNL1        0.0224
      5 C         139.3861  144.0300  165.4292 C.3     1  UNL1        0.0060
      6 C         139.6111  144.8274  164.1787 C.3     1  UNL1        0.0199
      7 C         140.2011  142.2566  167.1439 C.ar    1  UNL1       -0.0223
      8 C         139.7829  140.8190  167.0517 C.ar    1  UNL1       -0.0012
      9 C         139.5579  140.0216  168.3021 C.ar    1  UNL1        0.0363
     10 C         139.7511  140.6618  169.6448 C.ar    1  UNL1        0.1337
     11 O         139.5261  139.8644  170.8953 O.3     1  UNL1       -0.5055
     12 C         140.1693  142.0994  169.7371 C.ar    1  UNL1        0.0363
     13 C         140.3943  142.8968  168.4866 C.ar    1  UNL1       -0.0012
     14 H         139.2649  138.9664  170.8376 H       1  UNL1        0.2922
     15 O         139.3556  143.9812  160.8942 O.2     1  UNL1       -0.2751
     16 C         140.3408  145.1123  160.8930 C.2     1  UNL1        0.2228
     17 N         141.1010  145.4460  162.1422 N.am    1  UNL1       -0.3060
     18 H         141.7477  146.1884  162.1415 H       1  UNL1        0.1494
     19 C         140.5658  145.9096  159.6425 C.3     1  UNL1        0.0913
     20 C         140.8702  145.2096  158.3513 C.3     1  UNL1        0.0554
     21 C         139.8977  145.2822  157.2114 C.ar    1  UNL1        0.0595
     22 C         139.6502  146.5894  156.5188 C.ar    1  UNL1        0.0148
     23 C         138.6778  146.6619  155.3790 C.ar    1  UNL1        0.0028
     24 C         137.9529  145.4272  154.9319 C.ar    1  UNL1        0.0207
     25 C         138.2004  144.1199  155.6245 C.ar    1  UNL1        0.0984
     26 N         139.1728  144.0474  156.7643 N.ar    1  UNL1       -0.2481
@<TRIPOS>BOND
     1    15    16    2
     2    16    19    1
     3    19    20    1
     4    20    21    1
     5    21    22   ar
     6    22    23   ar
     7    23    24   ar
     8    24    25   ar
     9    25    26   ar
    10    16    17   am
    11     1    17    1
    12     1     2    1
    13     2     3    1
    14     3     4    1
    15     4     7    1
    16     7     8   ar
    17     8     9   ar
    18     9    10   ar
    19    10    11    1
    20    10    12   ar
    21    12    13   ar
    22     4     5    1
    23     5     6    1
    24    26    21   ar
    25     6     1    1
    26    13     7   ar
    27    17    18    1
    28    11    14    1
@<TRIPOS>MOLECULE
*****
 26 28 0 0 0
SMALL
GASTEIGER

@<TRIPOS>ATOM
      1 C         138.2697  139.9766  163.7413 C.3     1  UNL1        0.0716
      2 C         138.4972  141.3119  164.3857 C.3     1  UNL1        0.0199
      3 C         139.1577  141.3933  165.7300 C.3     1  UNL1        0.0060
      4 C         139.5908  140.1393  166.4299 C.3     1  UNL1        0.0224
      5 C         139.3634  138.8039  165.7856 C.3     1  UNL1        0.0060
      6 C         138.7028  138.7226  164.4413 C.3     1  UNL1        0.0199
      7 C         140.2514  140.2206  167.7741 C.ar    1  UNL1       -0.0223
      8 C         141.7440  140.1190  167.8838 C.ar    1  UNL1       -0.0012
      9 C         142.4045  140.2004  169.2280 C.ar    1  UNL1        0.0363
     10 C         141.5725  140.3832  170.4627 C.ar    1  UNL1        0.1337
     11 O         142.2331  140.4645  171.8070 O.3     1  UNL1       -0.5055
     12 C         140.0800  140.4847  170.3531 C.ar    1  UNL1        0.0363
     13 C         139.4194  140.4034  169.0088 C.ar    1  UNL1       -0.0012
     14 H         143.1655  140.4011  171.8754 H       1  UNL1        0.2922
     15 O         139.8715  140.4602  161.2514 O.2     1  UNL1       -0.2751
     16 C         138.4101  140.1371  161.1521 C.2     1  UNL1        0.2228
     17 N         137.6092  139.8953  162.3971 N.am    1  UNL1       -0.3060
     18 H         136.6500  139.6832  162.3320 H       1  UNL1        0.1494
     19 C         137.7496  140.0558  159.8078 C.3     1  UNL1        0.0913
     20 C         138.3754  140.7294  158.6227 C.3     1  UNL1        0.0554
     21 C         137.5125  141.2311  157.5029 C.ar    1  UNL1        0.0595
     22 C         137.7831  142.5737  156.8913 C.ar    1  UNL1        0.0148
     23 C         136.9203  143.0754  155.7715 C.ar    1  UNL1        0.0028
     24 C         135.7869  142.2343  155.2634 C.ar    1  UNL1        0.0207
     25 C         135.5164  140.8917  155.8750 C.ar    1  UNL1        0.0984
     26 N         136.3792  140.3901  156.9947 N.ar    1  UNL1       -0.2481
@<TRIPOS>BOND
     1    15    16    2
     2    16    19    1
     3    19    20    1
     4    20    21    1
     5    21    22   ar
     6    22    23   ar
     7    23    24   ar
     8    24    25   ar
     9    25    26   ar
    10    16    17   am
    11     1    17    1
    12     1     2    1
    13     2     3    1
    14     3     4    1
    15     4     7    1
    16     7     8   ar
    17     8     9   ar
    18     9    10   ar
    19    10    11    1
    20    10    12   ar
    21    12    13   ar
    22     4     5    1
    23     5     6    1
    24    26    21   ar
    25     6     1    1
    26    13     7   ar
    27    17    18    1
    28    11    14    1
@<TRIPOS>MOLECULE
*****
 26 28 0 0 0
SMALL
GASTEIGER

@<TRIPOS>ATOM
      1 C         141.1124  144.4487  163.3849 C.3     1  UNL1        0.0716
      2 C         142.1311  143.4827  163.9134 C.3     1  UNL1        0.0199
      3 C         141.8594  142.7236  165.1783 C.3     1  UNL1        0.0060
      4 C         140.5691  142.9305  165.9148 C.3     1  UNL1        0.0224
      5 C         139.5505  143.8964  165.3863 C.3     1  UNL1        0.0060
      6 C         139.8221  144.6555  164.1214 C.3     1  UNL1        0.0199
      7 C         140.2975  142.1714  167.1796 C.ar    1  UNL1       -0.0223
      8 C         140.5091  142.8309  168.5102 C.ar    1  UNL1       -0.0012
      9 C         140.2374  142.0718  169.7751 C.ar    1  UNL1        0.0363
     10 C         139.7542  140.6533  169.7095 C.ar    1  UNL1        0.1337
     11 O         139.4825  139.8943  170.9745 O.3     1  UNL1       -0.5055
     12 C         139.5426  139.9939  168.3790 C.ar    1  UNL1        0.0363
     13 C         139.8142  140.7529  167.1140 C.ar    1  UNL1       -0.0012
     14 H         139.6147  140.3062  171.8056 H       1  UNL1        0.2922
     15 O         140.4835  143.2083  160.7268 O.2     1  UNL1       -0.2751
     16 C         141.0696  144.5875  160.7910 C.2     1  UNL1        0.2228
     17 N         141.3840  145.2077  162.1200 N.am    1  UNL1       -0.3060
     18 H         141.7687  146.1130  162.1621 H       1  UNL1        0.1494
     19 C         141.3412  145.3466  159.5260 C.3     1  UNL1        0.0913
     20 C         140.2009  145.8993  158.7234 C.3     1  UNL1        0.0554
     21 C         140.3489  146.0903  157.2429 C.ar    1  UNL1        0.0595
     22 C         141.4679  145.4142  156.5077 C.ar    1  UNL1        0.0148
     23 C         141.6158  145.6052  155.0273 C.ar    1  UNL1        0.0028
     24 C         140.6447  146.4722  154.2822 C.ar    1  UNL1        0.0207
     25 C         139.5257  147.1483  155.0174 C.ar    1  UNL1        0.0984
     26 N         139.3778  146.9573  156.4978 N.ar    1  UNL1       -0.2481
@<TRIPOS>BOND
     1    15    16    2
     2    16    19    1
     3    19    20    1
     4    20    21    1
     5    21    22   ar
     6    22    23   ar
     7    23    24   ar
     8    24    25   ar
     9    25    26   ar
    10    16    17   am
    11     1    17    1
    12     1     2    1
    13     2     3    1
    14     3     4    1
    15     4     7    1
    16     7     8   ar
    17     8     9   ar
    18     9    10   ar
    19    10    11    1
    20    10    12   ar
    21    12    13   ar
    22     4     5    1
    23     5     6    1
    24    26    21   ar
    25     6     1    1
    26    13     7   ar
    27    17    18    1
    28    11    14    1
@<TRIPOS>MOLECULE
*****
 26 28 0 0 0
SMALL
GASTEIGER

@<TRIPOS>ATOM
      1 C         140.8353  144.5479  163.5102 C.3     1  UNL1        0.0716
      2 C         139.6336  144.8129  164.3680 C.3     1  UNL1        0.0199
      3 C         139.4216  144.0242  165.6262 C.3     1  UNL1        0.0060
      4 C         140.4111  142.9704  166.0265 C.3     1  UNL1        0.0224
      5 C         141.6127  142.7053  165.1687 C.3     1  UNL1        0.0060
      6 C         141.8248  143.4941  163.9105 C.3     1  UNL1        0.0199
      7 C         140.1991  142.1817  167.2846 C.ar    1  UNL1       -0.0223
      8 C         139.7685  140.7469  167.2068 C.ar    1  UNL1       -0.0012
      9 C         139.5564  139.9581  168.4649 C.ar    1  UNL1        0.0363
     10 C         139.7750  140.6041  169.8009 C.ar    1  UNL1        0.1337
     11 O         139.5629  139.8153  171.0591 O.3     1  UNL1       -0.5055
     12 C         140.2056  142.0389  169.8788 C.ar    1  UNL1        0.0363
     13 C         140.4176  142.8277  168.6206 C.ar    1  UNL1       -0.0012
     14 H         139.2939  138.9191  171.0104 H       1  UNL1        0.2922
     15 O         139.1009  144.0453  161.1146 O.2     1  UNL1       -0.2751
     16 C         140.1802  145.0853  161.0543 C.2     1  UNL1        0.2228
     17 N         141.0473  145.3366  162.2521 N.am    1  UNL1       -0.3060
     18 H         141.7557  146.0192  162.2125 H       1  UNL1        0.1494
     19 C         140.3922  145.8740  159.7961 C.3     1  UNL1        0.0913
     20 C         141.2579  145.3228  158.7022 C.3     1  UNL1        0.0554
     21 C         142.0122  144.0438  158.9152 C.ar    1  UNL1        0.0595
     22 C         141.8299  142.8982  157.9642 C.ar    1  UNL1        0.0148
     23 C         142.5841  141.6193  158.1773 C.ar    1  UNL1        0.0028
     24 C         143.5207  141.4860  159.3414 C.ar    1  UNL1        0.0207
     25 C         143.7030  142.6315  160.2924 C.ar    1  UNL1        0.0984
     26 N         142.9487  143.9104  160.0793 N.ar    1  UNL1       -0.2481
@<TRIPOS>BOND
     1    15    16    2
     2    16    19    1
     3    19    20    1
     4    20    21    1
     5    21    22   ar
     6    22    23   ar
     7    23    24   ar
     8    24    25   ar
     9    25    26   ar
    10    16    17   am
    11     1    17    1
    12     1     2    1
    13     2     3    1
    14     3     4    1
    15     4     7    1
    16     7     8   ar
    17     8     9   ar
    18     9    10   ar
    19    10    11    1
    20    10    12   ar
    21    12    13   ar
    22     4     5    1
    23     5     6    1
    24    26    21   ar
    25     6     1    1
    26    13     7   ar
    27    17    18    1
    28    11    14    1
@<TRIPOS>MOLECULE
*****
 26 28 0 0 0
SMALL
GASTEIGER

@<TRIPOS>ATOM
      1 C         138.1996  140.6022  164.1913 C.3     1  UNL1        0.0716
      2 C         139.0302  141.7866  164.5884 C.3     1  UNL1        0.0199
      3 C         139.7305  141.8007  165.9148 C.3     1  UNL1        0.0060
      4 C         139.6004  140.6305  166.8441 C.3     1  UNL1        0.0224
      5 C         138.7699  139.4461  166.4471 C.3     1  UNL1        0.0060
      6 C         138.0695  139.4320  165.1207 C.3     1  UNL1        0.0199
      7 C         140.3007  140.6445  168.1705 C.ar    1  UNL1       -0.0223
      8 C         139.5448  140.3071  169.4214 C.ar    1  UNL1       -0.0012
      9 C         140.2452  140.3212  170.7478 C.ar    1  UNL1        0.0363
     10 C         141.7015  140.6727  170.8233 C.ar    1  UNL1        0.1337
     11 O         142.4018  140.6868  172.1497 O.3     1  UNL1       -0.5055
     12 C         142.4574  141.0101  169.5724 C.ar    1  UNL1        0.0363
     13 C         141.7570  140.9960  168.2460 C.ar    1  UNL1       -0.0012
     14 H         141.9296  140.4760  172.9311 H       1  UNL1        0.2922
     15 O         139.2924  138.9539  161.9356 O.2     1  UNL1       -0.2751
     16 C         138.0457  139.7640  161.7371 C.2     1  UNL1        0.2228
     17 N         137.4993  140.5882  162.8650 N.am    1  UNL1       -0.3060
     18 H         136.6810  141.1198  162.7347 H       1  UNL1        0.1494
     19 C         137.3453  139.7499  160.4107 C.3     1  UNL1        0.0913
     20 C         137.8964  140.5432  159.2631 C.3     1  UNL1        0.0554
     21 C         139.0039  141.5279  159.4953 C.ar    1  UNL1        0.0595
     22 C         140.4266  141.1322  159.2322 C.ar    1  UNL1        0.0148
     23 C         141.5341  142.1169  159.4644 C.ar    1  UNL1        0.0028
     24 C         141.2188  143.4972  159.9597 C.ar    1  UNL1        0.0207
     25 C         139.7961  143.8929  160.2228 C.ar    1  UNL1        0.0984
     26 N         138.6886  142.9082  159.9906 N.ar    1  UNL1       -0.2481
@<TRIPOS>BOND
     1    15    16    2
     2    16    19    1
     3    19    20    1
     4    20    21    1
     5    21    22   ar
     6    22    23   ar
     7    23    24   ar
     8    24    25   ar
     9    25    26   ar
    10    16    17   am
    11     1    17    1
    12     1     2    1
    13     2     3    1
    14     3     4    1
    15     4     7    1
    16     7     8   ar
    17     8     9   ar
    18     9    10   ar
    19    10    11    1
    20    10    12   ar
    21    12    13   ar
    22     4     5    1
    23     5     6    1
    24    26    21   ar
    25     6     1    1
    26    13     7   ar
    27    17    18    1
    28    11    14    1
@<TRIPOS>MOLECULE
*****
 26 28 0 0 0
SMALL
GASTEIGER

@<TRIPOS>ATOM
      1 C         144.0357  141.8355  163.8800 C.3     1  UNL1        0.0716
      2 C         144.4201  142.9485  164.8093 C.3     1  UNL1        0.0199
      3 C         143.8433  143.0032  166.1929 C.3     1  UNL1        0.0060
      4 C         142.8821  141.9451  166.6472 C.3     1  UNL1        0.0224
      5 C         142.4977  140.8321  165.7180 C.3     1  UNL1        0.0060
      6 C         143.0745  140.7773  164.3343 C.3     1  UNL1        0.0199
      7 C         142.3053  141.9998  168.0308 C.ar    1  UNL1       -0.0223
      8 C         143.0282  141.3463  169.1711 C.ar    1  UNL1       -0.0012
      9 C         142.4515  141.4011  170.5547 C.ar    1  UNL1        0.0363
     10 C         141.1518  142.1094  170.7980 C.ar    1  UNL1        0.1337
     11 O         140.5750  142.1641  172.1816 O.3     1  UNL1       -0.5055
     12 C         140.4289  142.7629  169.6577 C.ar    1  UNL1        0.0363
     13 C         141.0057  142.7082  168.2740 C.ar    1  UNL1       -0.0012
     14 H         141.0266  141.7559  172.8939 H       1  UNL1        0.2922
     15 O         142.7655  143.4064  161.6622 O.2     1  UNL1       -0.2751
     16 C         143.9774  142.5662  161.3875 C.2     1  UNL1        0.2228
     17 N         144.6124  141.7807  162.4964 N.am    1  UNL1       -0.3060
     18 H         145.4078  141.2292  162.3162 H       1  UNL1        0.1494
     19 C         144.5541  142.5114  160.0039 C.3     1  UNL1        0.0913
     20 C         144.2605  141.3396  159.1148 C.3     1  UNL1        0.0554
     21 C         143.5563  140.1362  159.6680 C.ar    1  UNL1        0.0595
     22 C         142.0822  139.9639  159.4503 C.ar    1  UNL1        0.0148
     23 C         141.3780  138.7606  160.0036 C.ar    1  UNL1        0.0028
     24 C         142.1479  137.7296  160.7745 C.ar    1  UNL1        0.0207
     25 C         143.6220  137.9019  160.9922 C.ar    1  UNL1        0.0984
     26 N         144.3261  139.1052  160.4389 N.ar    1  UNL1       -0.2481
@<TRIPOS>BOND
     1    15    16    2
     2    16    19    1
     3    19    20    1
     4    20    21    1
     5    21    22   ar
     6    22    23   ar
     7    23    24   ar
     8    24    25   ar
     9    25    26   ar
    10    16    17   am
    11     1    17    1
    12     1     2    1
    13     2     3    1
    14     3     4    1
    15     4     7    1
    16     7     8   ar
    17     8     9   ar
    18     9    10   ar
    19    10    11    1
    20    10    12   ar
    21    12    13   ar
    22     4     5    1
    23     5     6    1
    24    26    21   ar
    25     6     1    1
    26    13     7   ar
    27    17    18    1
    28    11    14    1
@<TRIPOS>MOLECULE
*****
 26 28 0 0 0
SMALL
GASTEIGER

@<TRIPOS>ATOM
      1 C         139.3649  140.1417  163.3641 C.3     1  UNL1        0.0716
      2 C         138.4385  139.5742  164.3984 C.3     1  UNL1        0.0199
      3 C         138.6351  139.9106  165.8469 C.3     1  UNL1        0.0060
      4 C         139.7582  140.8146  166.2611 C.3     1  UNL1        0.0224
      5 C         140.6846  141.3821  165.2269 C.3     1  UNL1        0.0060
      6 C         140.4880  141.0457  163.7784 C.3     1  UNL1        0.0199
      7 C         139.9548  141.1510  167.7096 C.ar    1  UNL1       -0.0223
      8 C         140.5531  142.4705  168.0986 C.ar    1  UNL1       -0.0012
      9 C         140.7497  142.8069  169.5471 C.ar    1  UNL1        0.0363
     10 C         140.3482  141.8240  170.6066 C.ar    1  UNL1        0.1337
     11 O         140.5448  142.1605  172.0551 O.3     1  UNL1       -0.5055
     12 C         139.7499  140.5046  170.2177 C.ar    1  UNL1        0.0363
     13 C         139.5533  140.1681  168.7691 C.ar    1  UNL1       -0.0012
     14 H         140.9185  142.9847  172.2981 H       1  UNL1        0.2922
     15 O         140.3163  137.5055  162.2940 O.2     1  UNL1       -0.2751
     16 C         139.6439  138.4872  161.3806 C.2     1  UNL1        0.2228
     17 N         139.1683  139.8053  161.9157 N.am    1  UNL1       -0.3060
     18 H         138.7270  140.4496  161.3162 H       1  UNL1        0.1494
     19 C         139.4473  138.1507  159.9321 C.3     1  UNL1        0.0913
     20 C         140.0023  139.0533  158.8704 C.3     1  UNL1        0.0554
     21 C         139.1501  140.1444  158.2929 C.ar    1  UNL1        0.0595
     22 C         139.2935  141.5516  158.7919 C.ar    1  UNL1        0.0148
     23 C         138.4413  142.6426  158.2143 C.ar    1  UNL1        0.0028
     24 C         137.4458  142.3263  157.1378 C.ar    1  UNL1        0.0207
     25 C         137.3025  140.9191  156.6388 C.ar    1  UNL1        0.0984
     26 N         138.1546  139.8281  157.2163 N.ar    1  UNL1       -0.2481
@<TRIPOS>BOND
     1    15    16    2
     2    16    19    1
     3    19    20    1
     4    20    21    1
     5    21    22   ar
     6    22    23   ar
     7    23    24   ar
     8    24    25   ar
     9    25    26   ar
    10    16    17   am
    11     1    17    1
    12     1     2    1
    13     2     3    1
    14     3     4    1
    15     4     7    1
    16     7     8   ar
    17     8     9   ar
    18     9    10   ar
    19    10    11    1
    20    10    12   ar
    21    12    13   ar
    22     4     5    1
    23     5     6    1
    24    26    21   ar
    25     6     1    1
    26    13     7   ar
    27    17    18    1
    28    11    14    1
@<TRIPOS>MOLECULE
*****
 26 28 0 0 0
SMALL
GASTEIGER

@<TRIPOS>ATOM
      1 C         141.8681  138.1891  164.1192 C.3     1  UNL1        0.0716
      2 C         140.4928  138.6467  164.5057 C.3     1  UNL1        0.0199
      3 C         140.2669  139.3035  165.8351 C.3     1  UNL1        0.0060
      4 C         141.4162  139.5028  166.7782 C.3     1  UNL1        0.0224
      5 C         142.7914  139.0453  166.3918 C.3     1  UNL1        0.0060
      6 C         143.0174  138.3884  165.0623 C.3     1  UNL1        0.0199
      7 C         141.1903  140.1596  168.1077 C.ar    1  UNL1       -0.0223
      8 C         142.3608  140.6163  168.9272 C.ar    1  UNL1       -0.0012
      9 C         142.1348  141.2731  170.2566 C.ar    1  UNL1        0.0363
     10 C         140.7385  141.4732  170.7667 C.ar    1  UNL1        0.1337
     11 O         140.5126  142.1301  172.0962 O.3     1  UNL1       -0.5055
     12 C         139.5681  141.0166  169.9473 C.ar    1  UNL1        0.0363
     13 C         139.7939  140.3598  168.6177 C.ar    1  UNL1       -0.0012
     14 H         141.2438  142.4153  172.6081 H       1  UNL1        0.2922
     15 O         143.2463  139.6918  161.9188 O.2     1  UNL1       -0.2751
     16 C         142.7831  138.2837  161.6895 C.2     1  UNL1        0.2228
     17 N         142.0940  137.5323  162.7897 N.am    1  UNL1       -0.3060
     18 H         141.7899  136.6081  162.6393 H       1  UNL1        0.1494
     19 C         143.0090  137.6269  160.3600 C.3     1  UNL1        0.0913
     20 C         142.3199  138.1539  159.1363 C.3     1  UNL1        0.0554
     21 C         142.6646  137.6016  157.7849 C.ar    1  UNL1        0.0595
     22 C         142.4772  138.4461  156.5595 C.ar    1  UNL1        0.0148
     23 C         142.8219  137.8938  155.2082 C.ar    1  UNL1        0.0028
     24 C         143.3539  136.4969  155.0823 C.ar    1  UNL1        0.0207
     25 C         143.5412  135.6524  156.3077 C.ar    1  UNL1        0.0984
     26 N         143.1965  136.2047  157.6590 N.ar    1  UNL1       -0.2481
@<TRIPOS>BOND
     1    15    16    2
     2    16    19    1
     3    19    20    1
     4    20    21    1
     5    21    22   ar
     6    22    23   ar
     7    23    24   ar
     8    24    25   ar
     9    25    26   ar
    10    16    17   am
    11     1    17    1
    12     1     2    1
    13     2     3    1
    14     3     4    1
    15     4     7    1
    16     7     8   ar
    17     8     9   ar
    18     9    10   ar
    19    10    11    1
    20    10    12   ar
    21    12    13   ar
    22     4     5    1
    23     5     6    1
    24    26    21   ar
    25     6     1    1
    26    13     7   ar
    27    17    18    1
    28    11    14    1
@<TRIPOS>MOLECULE
*****
 26 28 0 0 0
SMALL
GASTEIGER

@<TRIPOS>ATOM
      1 C         144.1526  141.9709  163.6288 C.3     1  UNL1        0.0716
      2 C         143.0836  140.9979  164.0294 C.3     1  UNL1        0.0199
      3 C         142.4884  141.0618  165.4048 C.3     1  UNL1        0.0060
      4 C         142.9622  142.0988  166.3796 C.3     1  UNL1        0.0224
      5 C         144.0312  143.0718  165.9790 C.3     1  UNL1        0.0060
      6 C         144.6264  143.0079  164.6036 C.3     1  UNL1        0.0199
      7 C         142.3671  142.1628  167.7549 C.ar    1  UNL1       -0.0223
      8 C         140.8774  142.1392  167.9294 C.ar    1  UNL1       -0.0012
      9 C         140.2823  142.2032  169.3048 C.ar    1  UNL1        0.0363
     10 C         141.1767  142.2907  170.5057 C.ar    1  UNL1        0.1337
     11 O         140.5815  142.3546  171.8811 O.3     1  UNL1       -0.5055
     12 C         142.6663  142.3142  170.3313 C.ar    1  UNL1        0.0363
     13 C         143.2616  142.2502  168.9559 C.ar    1  UNL1       -0.0012
     14 H         139.6510  142.3399  171.9901 H       1  UNL1        0.2922
     15 O         143.2594  143.9049  161.5165 O.2     1  UNL1       -0.2751
     16 C         144.3011  142.8740  161.1973 C.2     1  UNL1        0.2228
     17 N         144.7477  141.9070  162.2534 N.am    1  UNL1       -0.3060
     18 H         145.4315  141.2304  162.0439 H       1  UNL1        0.1494
     19 C         144.8963  142.8101  159.8218 C.3     1  UNL1        0.0913
     20 C         144.3321  141.8639  158.8038 C.3     1  UNL1        0.0554
     21 C         145.0774  141.6027  157.5285 C.ar    1  UNL1        0.0595
     22 C         144.6363  140.4979  156.6148 C.ar    1  UNL1        0.0148
     23 C         145.3816  140.2367  155.3396 C.ar    1  UNL1        0.0028
     24 C         146.5681  141.0803  154.9780 C.ar    1  UNL1        0.0207
     25 C         147.0093  142.1850  155.8917 C.ar    1  UNL1        0.0984
     26 N         146.2639  142.4462  157.1669 N.ar    1  UNL1       -0.2481
@<TRIPOS>BOND
     1    15    16    2
     2    16    19    1
     3    19    20    1
     4    20    21    1
     5    21    22   ar
     6    22    23   ar
     7    23    24   ar
     8    24    25   ar
     9    25    26   ar
    10    16    17   am
    11     1    17    1
    12     1     2    1
    13     2     3    1
    14     3     4    1
    15     4     7    1
    16     7     8   ar
    17     8     9   ar
    18     9    10   ar
    19    10    11    1
    20    10    12   ar
    21    12    13   ar
    22     4     5    1
    23     5     6    1
    24    26    21   ar
    25     6     1    1
    26    13     7   ar
    27    17    18    1
    28    11    14    1
