@<TRIPOS>MOLECULE
*****
 28 31 0 0 0
SMALL
GASTEIGER

@<TRIPOS>ATOM
      1 C         143.9047  137.8586  161.0007 C.3     1  UNL1        0.0992
      2 C         142.6849  137.7577  158.7091 C.3     1  UNL1        0.0902
      3 N         143.4547  138.5315  159.7379 N.3     1  UNL1       -0.2639
      4 C         143.7746  139.9781  159.5038 C.3     1  UNL1        0.0995
      5 C         143.1920  141.0297  160.4010 C.ar    1  UNL1       -0.0031
      6 C         141.7144  141.0624  160.6572 C.ar    1  UNL1       -0.0030
      7 C         141.1318  142.1139  161.5543 C.ar    1  UNL1       -0.0016
      8 C         142.0269  143.1329  162.1952 C.ar    1  UNL1        0.0119
      9 C         143.5044  143.1002  161.9390 C.ar    1  UNL1        0.1342
     10 C         144.0870  142.0486  161.0419 C.ar    1  UNL1        0.0337
     11 O         144.3995  144.1191  162.5799 O.3     1  UNL1       -0.4758
     12 C         143.8169  145.1707  163.4770 C.3     1  UNL1        0.2057
     13 C         142.3393  145.2033  163.7332 C.3     1  UNL1        0.0521
     14 C         141.4443  144.1844  163.0923 C.3     1  UNL1        0.0333
     15 C         143.3676  138.3134  162.3253 C.2     1  UNL1       -0.0088
     16 C         144.2531  139.0623  163.2766 C.2     1  UNL1       -0.0032
     17 C         143.7159  139.5171  164.6013 C.ar    1  UNL1       -0.0003
     18 C         143.5121  138.5256  165.7083 C.ar    1  UNL1       -0.0000
     19 C         142.9749  138.9803  167.0329 C.ar    1  UNL1       -0.0000
     20 C         142.6414  140.4265  167.2504 C.ar    1  UNL1       -0.0000
     21 C         142.8452  141.4179  166.1434 C.ar    1  UNL1       -0.0000
     22 C         143.3824  140.9632  164.8188 C.ar    1  UNL1       -0.0000
     23 C         142.1042  140.8813  168.5751 C.ar    1  UNL1        0.0000
     24 C         142.5248  142.2055  169.1403 C.ar    1  UNL1        0.0000
     25 C         141.9876  142.6603  170.4649 C.ar    1  UNL1        0.0000
     26 C         141.0298  141.7909  171.2243 C.ar    1  UNL1        0.0000
     27 C         140.6092  140.4666  170.6591 C.ar    1  UNL1        0.0000
     28 C         141.1464  140.0118  169.3344 C.ar    1  UNL1        0.0000
@<TRIPOS>BOND
     1     2     3    1
     2     3     1    1
     3     1    15    1
     4    15    16    2
     5    16    17    1
     6    17    18   ar
     7    18    19   ar
     8    19    20   ar
     9    20    23    1
    10    23    24   ar
    11    24    25   ar
    12    25    26   ar
    13    26    27   ar
    14    27    28   ar
    15    20    21   ar
    16    21    22   ar
    17     3     4    1
    18     4     5    1
    19     5     6   ar
    20     6     7   ar
    21     7     8   ar
    22     8     9   ar
    23     9    10   ar
    24     9    11    1
    25    11    12    1
    26    12    13    1
    27    13    14    1
    28    22    17   ar
    29    10     5   ar
    30    28    23   ar
    31    14     8    1
@<TRIPOS>MOLECULE
*****
 28 31 0 0 0
SMALL
GASTEIGER

@<TRIPOS>ATOM
      1 C         144.1224  138.3718  160.9486 C.3     1  UNL1        0.0992
      2 C         142.6281  138.2424  158.8272 C.3     1  UNL1        0.0902
      3 N         143.5492  139.0175  159.7220 N.3     1  UNL1       -0.2639
      4 C         143.8972  140.4383  159.3902 C.3     1  UNL1        0.0995
      5 C         143.6519  141.5248  160.3950 C.ar    1  UNL1       -0.0031
      6 C         144.8079  142.2832  160.9768 C.ar    1  UNL1       -0.0030
      7 C         144.5626  143.3697  161.9814 C.ar    1  UNL1       -0.0016
      8 C         143.1613  143.6978  162.4044 C.ar    1  UNL1        0.0119
      9 C         142.0053  142.9394  161.8226 C.ar    1  UNL1        0.1342
     10 C         142.2506  141.8529  160.8179 C.ar    1  UNL1        0.0337
     11 O         140.6041  143.2674  162.2455 O.3     1  UNL1       -0.4758
     12 C         140.3589  144.3539  163.2502 C.3     1  UNL1        0.2057
     13 C         141.5149  145.1123  163.8320 C.3     1  UNL1        0.0521
     14 C         142.9161  144.7842  163.4091 C.3     1  UNL1        0.0333
     15 C         143.5517  138.6884  162.2992 C.2     1  UNL1       -0.0088
     16 C         144.3617  139.4688  163.2915 C.2     1  UNL1       -0.0032
     17 C         143.7909  139.7854  164.6421 C.ar    1  UNL1       -0.0003
     18 C         143.5001  141.2079  165.0187 C.ar    1  UNL1       -0.0000
     19 C         142.9294  141.5246  166.3692 C.ar    1  UNL1       -0.0000
     20 C         142.6494  140.4187  167.3431 C.ar    1  UNL1       -0.0000
     21 C         142.9402  138.9961  166.9666 C.ar    1  UNL1       -0.0000
     22 C         143.5110  138.6795  165.6160 C.ar    1  UNL1       -0.0000
     23 C         142.0786  140.7353  168.6937 C.ar    1  UNL1        0.0000
     24 C         142.6608  141.8499  169.5115 C.ar    1  UNL1        0.0000
     25 C         142.0901  142.1665  170.8620 C.ar    1  UNL1        0.0000
     26 C         140.9371  141.3685  171.3949 C.ar    1  UNL1        0.0000
     27 C         140.3549  140.2539  170.5771 C.ar    1  UNL1        0.0000
     28 C         140.9257  139.9373  169.2265 C.ar    1  UNL1        0.0000
@<TRIPOS>BOND
     1     2     3    1
     2     3     1    1
     3     1    15    1
     4    15    16    2
     5    16    17    1
     6    17    18   ar
     7    18    19   ar
     8    19    20   ar
     9    20    23    1
    10    23    24   ar
    11    24    25   ar
    12    25    26   ar
    13    26    27   ar
    14    27    28   ar
    15    20    21   ar
    16    21    22   ar
    17     3     4    1
    18     4     5    1
    19     5     6   ar
    20     6     7   ar
    21     7     8   ar
    22     8     9   ar
    23     9    10   ar
    24     9    11    1
    25    11    12    1
    26    12    13    1
    27    13    14    1
    28    22    17   ar
    29    10     5   ar
    30    28    23   ar
    31    14     8    1
@<TRIPOS>MOLECULE
*****
 28 31 0 0 0
SMALL
GASTEIGER

@<TRIPOS>ATOM
      1 C         139.6315  138.3865  159.8236 C.3     1  UNL1        0.0992
      2 C         140.2955  139.3721  157.5132 C.3     1  UNL1        0.0902
      3 N         140.6760  138.6778  158.7872 N.3     1  UNL1       -0.2639
      4 C         142.1012  138.2748  159.0249 C.3     1  UNL1        0.0995
      5 C         142.8450  138.8131  160.2111 C.ar    1  UNL1       -0.0031
      6 C         143.3347  137.8780  161.2768 C.ar    1  UNL1       -0.0030
      7 C         144.0785  138.4163  162.4630 C.ar    1  UNL1       -0.0016
      8 C         144.3327  139.8897  162.5834 C.ar    1  UNL1        0.0119
      9 C         143.8430  140.8248  161.5177 C.ar    1  UNL1        0.1342
     10 C         143.0992  140.2865  160.3315 C.ar    1  UNL1        0.0337
     11 O         144.0972  142.2982  161.6381 O.3     1  UNL1       -0.4758
     12 C         144.8410  142.8365  162.8242 C.3     1  UNL1        0.2057
     13 C         145.3306  141.9014  163.8899 C.3     1  UNL1        0.0521
     14 C         145.0765  140.4280  163.7695 C.3     1  UNL1        0.0333
     15 C         139.6722  139.0898  161.1478 C.2     1  UNL1       -0.0088
     16 C         139.8040  138.2970  162.4144 C.2     1  UNL1       -0.0032
     17 C         139.8447  139.0003  163.7387 C.ar    1  UNL1       -0.0003
     18 C         141.0724  139.7590  164.1475 C.ar    1  UNL1       -0.0000
     19 C         141.1132  140.4623  165.4717 C.ar    1  UNL1       -0.0000
     20 C         139.9262  140.4070  166.3871 C.ar    1  UNL1       -0.0000
     21 C         138.6985  139.6483  165.9783 C.ar    1  UNL1       -0.0000
     22 C         138.6577  138.9450  164.6541 C.ar    1  UNL1       -0.0000
     23 C         139.9670  141.1104  167.7114 C.ar    1  UNL1        0.0000
     24 C         139.5105  140.4009  168.9517 C.ar    1  UNL1        0.0000
     25 C         139.5512  141.1042  170.2760 C.ar    1  UNL1        0.0000
     26 C         140.0484  142.5170  170.3600 C.ar    1  UNL1        0.0000
     27 C         140.5048  143.2264  169.1197 C.ar    1  UNL1        0.0000
     28 C         140.4641  142.5231  167.7954 C.ar    1  UNL1        0.0000
@<TRIPOS>BOND
     1     2     3    1
     2     3     1    1
     3     1    15    1
     4    15    16    2
     5    16    17    1
     6    17    18   ar
     7    18    19   ar
     8    19    20   ar
     9    20    23    1
    10    23    24   ar
    11    24    25   ar
    12    25    26   ar
    13    26    27   ar
    14    27    28   ar
    15    20    21   ar
    16    21    22   ar
    17     3     4    1
    18     4     5    1
    19     5     6   ar
    20     6     7   ar
    21     7     8   ar
    22     8     9   ar
    23     9    10   ar
    24     9    11    1
    25    11    12    1
    26    12    13    1
    27    13    14    1
    28    22    17   ar
    29    10     5   ar
    30    28    23   ar
    31    14     8    1
@<TRIPOS>MOLECULE
*****
 28 31 0 0 0
SMALL
GASTEIGER

@<TRIPOS>ATOM
      1 C         141.0474  145.1055  159.8849 C.3     1  UNL1        0.0992
      2 C         142.3059  145.0431  157.6128 C.3     1  UNL1        0.0902
      3 N         141.7703  144.3337  158.8210 N.3     1  UNL1       -0.2639
      4 C         141.9576  142.8525  158.9654 C.3     1  UNL1        0.0995
      5 C         142.7630  142.3060  160.1069 C.ar    1  UNL1       -0.0031
      6 C         144.0837  142.9251  160.4569 C.ar    1  UNL1       -0.0030
      7 C         144.8891  142.3787  161.5983 C.ar    1  UNL1       -0.0016
      8 C         144.3738  141.2132  162.3897 C.ar    1  UNL1        0.0119
      9 C         143.0531  140.5942  162.0396 C.ar    1  UNL1        0.1342
     10 C         142.2477  141.1406  160.8982 C.ar    1  UNL1        0.0337
     11 O         142.5378  139.4288  162.8310 O.3     1  UNL1       -0.4758
     12 C         143.3432  138.8825  163.9723 C.3     1  UNL1        0.2057
     13 C         144.6639  139.5015  164.3224 C.3     1  UNL1        0.0521
     14 C         145.1792  140.6669  163.5310 C.3     1  UNL1        0.0333
     15 C         140.7521  144.4631  161.2078 C.2     1  UNL1       -0.0088
     16 C         141.5604  144.8302  162.4168 C.2     1  UNL1       -0.0032
     17 C         141.2650  144.1878  163.7398 C.ar    1  UNL1       -0.0003
     18 C         142.2798  143.2871  164.3793 C.ar    1  UNL1       -0.0000
     19 C         141.9846  142.6447  165.7022 C.ar    1  UNL1       -0.0000
     20 C         140.6745  142.9030  166.3856 C.ar    1  UNL1       -0.0000
     21 C         139.6597  143.8037  165.7461 C.ar    1  UNL1       -0.0000
     22 C         139.9550  144.4461  164.4232 C.ar    1  UNL1       -0.0000
     23 C         140.3792  142.2605  167.7085 C.ar    1  UNL1        0.0000
     24 C         140.3932  143.0843  168.9620 C.ar    1  UNL1        0.0000
     25 C         140.0980  142.4419  170.2849 C.ar    1  UNL1        0.0000
     26 C         139.7886  140.9757  170.3544 C.ar    1  UNL1        0.0000
     27 C         139.7745  140.1520  169.1009 C.ar    1  UNL1        0.0000
     28 C         140.0699  140.7945  167.7779 C.ar    1  UNL1        0.0000
@<TRIPOS>BOND
     1     2     3    1
     2     3     1    1
     3     1    15    1
     4    15    16    2
     5    16    17    1
     6    17    18   ar
     7    18    19   ar
     8    19    20   ar
     9    20    23    1
    10    23    24   ar
    11    24    25   ar
    12    25    26   ar
    13    26    27   ar
    14    27    28   ar
    15    20    21   ar
    16    21    22   ar
    17     3     4    1
    18     4     5    1
    19     5     6   ar
    20     6     7   ar
    21     7     8   ar
    22     8     9   ar
    23     9    10   ar
    24     9    11    1
    25    11    12    1
    26    12    13    1
    27    13    14    1
    28    22    17   ar
    29    10     5   ar
    30    28    23   ar
    31    14     8    1
@<TRIPOS>MOLECULE
*****
 28 31 0 0 0
SMALL
GASTEIGER

@<TRIPOS>ATOM
      1 C         138.2675  141.9692  159.9974 C.3     1  UNL1        0.0992
      2 C         139.3221  141.4368  157.6835 C.3     1  UNL1        0.0902
      3 N         138.7786  140.9707  159.0015 N.3     1  UNL1       -0.2639
      4 C         138.7463  139.5061  159.3238 C.3     1  UNL1        0.0995
      5 C         139.2490  139.0188  160.6504 C.ar    1  UNL1       -0.0031
      6 C         138.3421  138.2388  161.5555 C.ar    1  UNL1       -0.0030
      7 C         138.8447  137.7515  162.8821 C.ar    1  UNL1       -0.0016
      8 C         140.2543  138.0441  163.3036 C.ar    1  UNL1        0.0119
      9 C         141.1611  138.8240  162.3985 C.ar    1  UNL1        0.1342
     10 C         140.6585  139.3114  161.0719 C.ar    1  UNL1        0.0337
     11 O         142.5706  139.1166  162.8199 O.3     1  UNL1       -0.4758
     12 C         143.0732  138.6292  164.1465 C.3     1  UNL1        0.2057
     13 C         142.1664  137.8493  165.0516 C.3     1  UNL1        0.0521
     14 C         140.7569  137.5567  164.6302 C.3     1  UNL1        0.0333
     15 C         138.9883  142.1681  161.2976 C.2     1  UNL1       -0.0088
     16 C         138.3363  141.7631  162.5863 C.2     1  UNL1       -0.0032
     17 C         139.0572  141.9620  163.8866 C.ar    1  UNL1       -0.0003
     18 C         138.8832  140.9718  164.9998 C.ar    1  UNL1       -0.0000
     19 C         139.6040  141.1707  166.3001 C.ar    1  UNL1       -0.0000
     20 C         140.4990  142.3598  166.4871 C.ar    1  UNL1       -0.0000
     21 C         140.6731  143.3500  165.3740 C.ar    1  UNL1       -0.0000
     22 C         139.9522  143.1511  164.0737 C.ar    1  UNL1       -0.0000
     23 C         141.2200  142.5588  167.7875 C.ar    1  UNL1        0.0000
     24 C         142.6492  142.1252  167.9266 C.ar    1  UNL1        0.0000
     25 C         143.3701  142.3241  169.2268 C.ar    1  UNL1        0.0000
     26 C         142.6619  142.9566  170.3880 C.ar    1  UNL1        0.0000
     27 C         141.2327  143.3902  170.2489 C.ar    1  UNL1        0.0000
     28 C         140.5117  143.1913  168.9486 C.ar    1  UNL1        0.0000
@<TRIPOS>BOND
     1     2     3    1
     2     3     1    1
     3     1    15    1
     4    15    16    2
     5    16    17    1
     6    17    18   ar
     7    18    19   ar
     8    19    20   ar
     9    20    23    1
    10    23    24   ar
    11    24    25   ar
    12    25    26   ar
    13    26    27   ar
    14    27    28   ar
    15    20    21   ar
    16    21    22   ar
    17     3     4    1
    18     4     5    1
    19     5     6   ar
    20     6     7   ar
    21     7     8   ar
    22     8     9   ar
    23     9    10   ar
    24     9    11    1
    25    11    12    1
    26    12    13    1
    27    13    14    1
    28    22    17   ar
    29    10     5   ar
    30    28    23   ar
    31    14     8    1
@<TRIPOS>MOLECULE
*****
 28 31 0 0 0
SMALL
GASTEIGER

@<TRIPOS>ATOM
      1 C         138.9616  138.1087  160.7397 C.3     1  UNL1        0.0992
      2 C         139.9624  138.4958  158.3736 C.3     1  UNL1        0.0902
      3 N         139.2098  139.0085  159.5655 N.3     1  UNL1       -0.2639
      4 C         138.7053  140.4210  159.5831 C.3     1  UNL1        0.0995
      5 C         139.1197  141.3517  160.6842 C.ar    1  UNL1       -0.0031
      6 C         140.5684  141.6912  160.8737 C.ar    1  UNL1       -0.0030
      7 C         140.9828  142.6219  161.9747 C.ar    1  UNL1       -0.0016
      8 C         139.9485  143.2131  162.8861 C.ar    1  UNL1        0.0119
      9 C         138.4997  142.8736  162.6965 C.ar    1  UNL1        0.1342
     10 C         138.0854  141.9429  161.5955 C.ar    1  UNL1        0.0337
     11 O         137.4654  143.4648  163.6079 O.3     1  UNL1       -0.4758
     12 C         137.8798  144.3954  164.7088 C.3     1  UNL1        0.2057
     13 C         139.3285  144.7349  164.8984 C.3     1  UNL1        0.0521
     14 C         140.3629  144.1438  163.9870 C.3     1  UNL1        0.0333
     15 C         139.4957  138.4763  162.0923 C.2     1  UNL1       -0.0088
     16 C         138.5549  138.9048  163.1792 C.2     1  UNL1       -0.0032
     17 C         139.0891  139.2723  164.5318 C.ar    1  UNL1       -0.0003
     18 C         138.3218  138.9035  165.7668 C.ar    1  UNL1       -0.0000
     19 C         138.8560  139.2709  167.1194 C.ar    1  UNL1       -0.0000
     20 C         140.1575  140.0072  167.2370 C.ar    1  UNL1       -0.0000
     21 C         140.9248  140.3761  166.0021 C.ar    1  UNL1       -0.0000
     22 C         140.3906  140.0086  164.6495 C.ar    1  UNL1       -0.0000
     23 C         140.6917  140.3748  168.5897 C.ar    1  UNL1        0.0000
     24 C         139.9822  141.4006  169.4229 C.ar    1  UNL1        0.0000
     25 C         140.5164  141.7681  170.7755 C.ar    1  UNL1        0.0000
     26 C         141.7601  141.1098  171.2949 C.ar    1  UNL1        0.0000
     27 C         142.4696  140.0840  170.4617 C.ar    1  UNL1        0.0000
     28 C         141.9354  139.7165  169.1091 C.ar    1  UNL1        0.0000
@<TRIPOS>BOND
     1     2     3    1
     2     3     1    1
     3     1    15    1
     4    15    16    2
     5    16    17    1
     6    17    18   ar
     7    18    19   ar
     8    19    20   ar
     9    20    23    1
    10    23    24   ar
    11    24    25   ar
    12    25    26   ar
    13    26    27   ar
    14    27    28   ar
    15    20    21   ar
    16    21    22   ar
    17     3     4    1
    18     4     5    1
    19     5     6   ar
    20     6     7   ar
    21     7     8   ar
    22     8     9   ar
    23     9    10   ar
    24     9    11    1
    25    11    12    1
    26    12    13    1
    27    13    14    1
    28    22    17   ar
    29    10     5   ar
    30    28    23   ar
    31    14     8    1
@<TRIPOS>MOLECULE
*****
 28 31 0 0 0
SMALL
GASTEIGER

@<TRIPOS>ATOM
      1 C         137.5694  139.9803  160.8243 C.3     1  UNL1        0.0992
      2 C         138.3425  140.3492  158.3715 C.3     1  UNL1        0.0902
      3 N         138.4612  139.6158  159.6746 N.3     1  UNL1       -0.2639
      4 C         139.4718  138.5181  159.8280 C.3     1  UNL1        0.0995
      5 C         140.5632  138.6407  160.8497 C.ar    1  UNL1       -0.0031
      6 C         140.5997  137.7077  162.0237 C.ar    1  UNL1       -0.0030
      7 C         141.6911  137.8303  163.0454 C.ar    1  UNL1       -0.0016
      8 C         142.7459  138.8858  162.8932 C.ar    1  UNL1        0.0119
      9 C         142.7094  139.8188  161.7192 C.ar    1  UNL1        0.1342
     10 C         141.6180  139.6962  160.6974 C.ar    1  UNL1        0.0337
     11 O         143.7642  140.8743  161.5669 O.3     1  UNL1       -0.4758
     12 C         144.8555  140.9968  162.5886 C.3     1  UNL1        0.2057
     13 C         144.8921  140.0639  163.7626 C.3     1  UNL1        0.0521
     14 C         143.8373  139.0084  163.9149 C.3     1  UNL1        0.0333
     15 C         138.1609  140.2500  162.1761 C.2     1  UNL1       -0.0088
     16 C         139.0768  141.4213  162.3739 C.2     1  UNL1       -0.0032
     17 C         139.6683  141.6909  163.7258 C.ar    1  UNL1       -0.0003
     18 C         139.9982  143.0963  164.1333 C.ar    1  UNL1       -0.0000
     19 C         140.5896  143.3661  165.4851 C.ar    1  UNL1       -0.0000
     20 C         140.8512  142.2304  166.4294 C.ar    1  UNL1       -0.0000
     21 C         140.5214  140.8250  166.0219 C.ar    1  UNL1       -0.0000
     22 C         139.9299  140.5553  164.6701 C.ar    1  UNL1       -0.0000
     23 C         141.4427  142.5000  167.7813 C.ar    1  UNL1        0.0000
     24 C         142.8774  142.1579  168.0540 C.ar    1  UNL1        0.0000
     25 C         143.4689  142.4275  169.4058 C.ar    1  UNL1        0.0000
     26 C         142.6256  143.0393  170.4850 C.ar    1  UNL1        0.0000
     27 C         141.1909  143.3815  170.2123 C.ar    1  UNL1        0.0000
     28 C         140.5994  143.1118  168.8604 C.ar    1  UNL1        0.0000
@<TRIPOS>BOND
     1     2     3    1
     2     3     1    1
     3     1    15    1
     4    15    16    2
     5    16    17    1
     6    17    18   ar
     7    18    19   ar
     8    19    20   ar
     9    20    23    1
    10    23    24   ar
    11    24    25   ar
    12    25    26   ar
    13    26    27   ar
    14    27    28   ar
    15    20    21   ar
    16    21    22   ar
    17     3     4    1
    18     4     5    1
    19     5     6   ar
    20     6     7   ar
    21     7     8   ar
    22     8     9   ar
    23     9    10   ar
    24     9    11    1
    25    11    12    1
    26    12    13    1
    27    13    14    1
    28    22    17   ar
    29    10     5   ar
    30    28    23   ar
    31    14     8    1
@<TRIPOS>MOLECULE
*****
 28 31 0 0 0
SMALL
GASTEIGER

@<TRIPOS>ATOM
      1 C         141.5496  138.2818  160.5170 C.3     1  UNL1        0.0992
      2 C         142.8066  138.7028  158.2825 C.3     1  UNL1        0.0902
      3 N         142.8158  138.6017  159.7790 N.3     1  UNL1       -0.2639
      4 C         144.0912  138.8205  160.5376 C.3     1  UNL1        0.0995
      5 C         144.1515  139.8570  161.6203 C.ar    1  UNL1       -0.0031
      6 C         144.4525  139.4500  163.0323 C.ar    1  UNL1       -0.0030
      7 C         144.5129  140.4864  164.1149 C.ar    1  UNL1       -0.0016
      8 C         144.2722  141.9299  163.7856 C.ar    1  UNL1        0.0119
      9 C         143.9711  142.3369  162.3736 C.ar    1  UNL1        0.1342
     10 C         143.9108  141.3004  161.2909 C.ar    1  UNL1        0.0337
     11 O         143.7304  143.7804  162.0442 O.3     1  UNL1       -0.4758
     12 C         143.7908  144.8168  163.1269 C.3     1  UNL1        0.2057
     13 C         144.0918  144.4098  164.5389 C.3     1  UNL1        0.0521
     14 C         144.3325  142.9663  164.8682 C.3     1  UNL1        0.0333
     15 C         141.3873  138.7055  161.9467 C.2     1  UNL1       -0.0088
     16 C         140.8513  140.0689  162.2686 C.2     1  UNL1       -0.0032
     17 C         140.6890  140.4926  163.6984 C.ar    1  UNL1       -0.0003
     18 C         140.5775  139.4583  164.7791 C.ar    1  UNL1       -0.0000
     19 C         140.4152  139.8819  166.2088 C.ar    1  UNL1       -0.0000
     20 C         140.3644  141.3398  166.5579 C.ar    1  UNL1       -0.0000
     21 C         140.4758  142.3741  165.4772 C.ar    1  UNL1       -0.0000
     22 C         140.6381  141.9505  164.0475 C.ar    1  UNL1       -0.0000
     23 C         140.2020  141.7635  167.9876 C.ar    1  UNL1        0.0000
     24 C         139.7269  140.7770  169.0129 C.ar    1  UNL1        0.0000
     25 C         139.5646  141.2006  170.4426 C.ar    1  UNL1        0.0000
     26 C         139.8774  142.6108  170.8472 C.ar    1  UNL1        0.0000
     27 C         140.3525  143.5973  169.8220 C.ar    1  UNL1        0.0000
     28 C         140.5148  143.1736  168.3922 C.ar    1  UNL1        0.0000
@<TRIPOS>BOND
     1     2     3    1
     2     3     1    1
     3     1    15    1
     4    15    16    2
     5    16    17    1
     6    17    18   ar
     7    18    19   ar
     8    19    20   ar
     9    20    23    1
    10    23    24   ar
    11    24    25   ar
    12    25    26   ar
    13    26    27   ar
    14    27    28   ar
    15    20    21   ar
    16    21    22   ar
    17     3     4    1
    18     4     5    1
    19     5     6   ar
    20     6     7   ar
    21     7     8   ar
    22     8     9   ar
    23     9    10   ar
    24     9    11    1
    25    11    12    1
    26    12    13    1
    27    13    14    1
    28    22    17   ar
    29    10     5   ar
    30    28    23   ar
    31    14     8    1
@<TRIPOS>MOLECULE
*****
 28 31 0 0 0
SMALL
GASTEIGER

@<TRIPOS>ATOM
      1 C         138.2029  139.2787  160.8024 C.3     1  UNL1        0.0992
      2 C         139.1001  139.7985  158.4202 C.3     1  UNL1        0.0902
      3 N         138.4926  140.2649  159.7099 N.3     1  UNL1       -0.2639
      4 C         138.1748  141.7175  159.9071 C.3     1  UNL1        0.0995
      5 C         138.9600  142.5298  160.8939 C.ar    1  UNL1       -0.0031
      6 C         138.2498  143.2804  161.9812 C.ar    1  UNL1       -0.0030
      7 C         139.0349  144.0927  162.9679 C.ar    1  UNL1       -0.0016
      8 C         140.5303  144.1545  162.8674 C.ar    1  UNL1        0.0119
      9 C         141.2405  143.4039  161.7801 C.ar    1  UNL1        0.1342
     10 C         140.4553  142.5915  160.7933 C.ar    1  UNL1        0.0337
     11 O         142.7358  143.4656  161.6796 O.3     1  UNL1       -0.4758
     12 C         143.5209  144.2779  162.6663 C.3     1  UNL1        0.2057
     13 C         142.8107  145.0285  163.7536 C.3     1  UNL1        0.0521
     14 C         141.3154  144.9668  163.8541 C.3     1  UNL1        0.0333
     15 C         138.8518  139.4354  162.1456 C.2     1  UNL1       -0.0088
     16 C         138.0488  139.9255  163.3139 C.2     1  UNL1       -0.0032
     17 C         138.6977  140.0822  164.6572 C.ar    1  UNL1       -0.0003
     18 C         139.8647  141.0099  164.8227 C.ar    1  UNL1       -0.0000
     19 C         140.5137  141.1666  166.1659 C.ar    1  UNL1       -0.0000
     20 C         139.9956  140.3956  167.3436 C.ar    1  UNL1       -0.0000
     21 C         138.8286  139.4679  167.1781 C.ar    1  UNL1       -0.0000
     22 C         138.1796  139.3112  165.8349 C.ar    1  UNL1       -0.0000
     23 C         140.6445  140.5522  168.6869 C.ar    1  UNL1        0.0000
     24 C         141.9213  139.8265  168.9923 C.ar    1  UNL1        0.0000
     25 C         142.5702  139.9832  170.3355 C.ar    1  UNL1        0.0000
     26 C         141.9424  140.8655  171.3735 C.ar    1  UNL1        0.0000
     27 C         140.6657  141.5913  171.0681 C.ar    1  UNL1        0.0000
     28 C         140.0167  141.4346  169.7248 C.ar    1  UNL1        0.0000
@<TRIPOS>BOND
     1     2     3    1
     2     3     1    1
     3     1    15    1
     4    15    16    2
     5    16    17    1
     6    17    18   ar
     7    18    19   ar
     8    19    20   ar
     9    20    23    1
    10    23    24   ar
    11    24    25   ar
    12    25    26   ar
    13    26    27   ar
    14    27    28   ar
    15    20    21   ar
    16    21    22   ar
    17     3     4    1
    18     4     5    1
    19     5     6   ar
    20     6     7   ar
    21     7     8   ar
    22     8     9   ar
    23     9    10   ar
    24     9    11    1
    25    11    12    1
    26    12    13    1
    27    13    14    1
    28    22    17   ar
    29    10     5   ar
    30    28    23   ar
    31    14     8    1
