@<TRIPOS>MOLECULE
*****
 39 43 0 0 0
SMALL
GASTEIGER

@<TRIPOS>ATOM
      1 C         139.7039  143.9859  160.6672 C.3     1  UNL1        0.2358
      2 C         140.7107  145.0273  161.0572 C.3     1  UNL1        0.1700
      3 O         141.6880  145.5427  160.0426 O.3     1  UNL1       -0.3793
      4 H         141.5338  145.1021  159.1923 H       1  UNL1        0.2106
      5 C         140.7402  145.5532  162.4616 C.3     1  UNL1        0.1056
      6 N         140.8486  144.6021  163.6165 N.3     1  UNL1       -0.2703
      7 C         139.7487  144.5292  164.6339 C.3     1  UNL1        0.0758
      8 C         139.8571  143.5782  165.7887 C.3     1  UNL1        0.0577
      9 C         141.0654  142.7000  165.9262 C.3     1  UNL1        0.1399
     10 C         142.1652  142.7729  164.9089 C.3     1  UNL1        0.0577
     11 C         142.0568  143.7239  163.7541 C.3     1  UNL1        0.0758
     12 C         142.2072  141.7648  166.1941 C.3     1  UNL1        0.0695
     13 C         141.8985  141.0039  167.4495 C.ar    1  UNL1        0.0161
     14 C         142.6586  139.9478  168.1956 C.ar    1  UNL1        0.0102
     15 C         142.0862  139.3566  169.4498 C.ar    1  UNL1        0.0576
     16 CL        142.8463  138.3005  170.1959 Cl      1  UNL1       -0.0823
     17 C         140.7536  139.8216  169.9577 C.ar    1  UNL1        0.0145
     18 C         139.9934  140.8777  169.2116 C.ar    1  UNL1        0.0374
     19 C         140.5658  141.4689  167.9574 C.ar    1  UNL1        0.1343
     20 O         140.0510  142.5171  167.0161 O.3     1  UNL1       -0.4825
     21 O         140.1315  142.5595  160.4874 O.3     1  UNL1       -0.4725
     22 C         141.2190  140.6508  161.8745 C.ar    1  UNL1        0.0877
     23 C         141.1770  139.7031  163.0364 C.ar    1  UNL1        0.0107
     24 C         140.0054  139.7163  163.9731 C.ar    1  UNL1        0.0370
     25 C         138.8759  140.6773  163.7479 C.ar    1  UNL1        0.1367
     26 O         137.7044  140.6905  164.6846 O.3     1  UNL1       -0.5054
     27 C         138.9179  141.6250  162.5859 C.ar    1  UNL1        0.0736
     28 C         140.0894  141.6118  161.6493 C.ar    1  UNL1        0.1460
     29 H         137.6782  140.0985  165.4104 H       1  UNL1        0.2922
     30 C         142.9626  138.7579  157.5904 C.3     1  UNL1        0.0792
     31 C         141.5830  138.2929  157.9519 C.3     1  UNL1        0.0392
     32 C         141.2008  138.9404  159.2499 C.3     1  UNL1        0.0952
     33 N         142.3441  139.8056  159.6906 N.am    1  UNL1       -0.2746
     34 C         142.3905  140.6375  160.9378 C.2     1  UNL1        0.2520
     35 O         143.6084  141.4563  161.2485 O.2     1  UNL1       -0.2698
     36 C         143.4330  139.6928  158.6650 C.3     1  UNL1        0.1096
     37 C         144.5694  139.3728  155.6437 C.3     1  UNL1        0.0897
     38 N         143.7359  138.3582  156.3689 N.3     1  UNL1       -0.2699
     39 C         143.6758  136.9439  155.8727 C.3     1  UNL1        0.0897
@<TRIPOS>BOND
     1    37    38    1
     2    38    39    1
     3    30    38    1
     4    30    31    1
     5    31    32    1
     6    32    33    1
     7    33    34   am
     8    34    35    2
     9    34    22    1
    10    22    23   ar
    11    23    24   ar
    12    24    25   ar
    13    25    26    1
    14    25    27   ar
    15    27    28   ar
    16    28    21    1
    17    21     1    1
    18     1     2    1
    19     2     3    1
    20     2     5    1
    21     5     6    1
    22     6     7    1
    23     7     8    1
    24     8     9    1
    25     9    10    1
    26    10    11    1
    27     9    12    1
    28    12    13    1
    29    13    14   ar
    30    14    15   ar
    31    15    16    1
    32    15    17   ar
    33    17    18   ar
    34    18    19   ar
    35    19    20    1
    36    33    36    1
    37    36    30    1
    38    28    22   ar
    39    11     6    1
    40    19    13   ar
    41    20     9    1
    42    26    29    1
    43     3     4    1
@<TRIPOS>MOLECULE
*****
 39 43 0 0 0
SMALL
GASTEIGER

@<TRIPOS>ATOM
      1 C         140.2420  143.2954  159.0545 C.3     1  UNL1        0.2358
      2 C         141.3042  143.7807  159.9961 C.3     1  UNL1        0.1700
      3 O         141.5824  145.2494  160.1202 O.3     1  UNL1       -0.3793
      4 H         140.9926  145.7414  159.5278 H       1  UNL1        0.2106
      5 C         142.0881  142.7971  160.8134 C.3     1  UNL1        0.1056
      6 N         141.7444  142.5792  162.2572 N.3     1  UNL1       -0.2703
      7 C         141.7241  143.7401  163.2069 C.3     1  UNL1        0.0758
      8 C         141.3803  143.5221  164.6505 C.3     1  UNL1        0.0577
      9 C         141.0569  142.1433  165.1446 C.3     1  UNL1        0.1399
     10 C         141.0772  140.9824  164.1950 C.3     1  UNL1        0.0577
     11 C         141.4210  141.2003  162.7513 C.3     1  UNL1        0.0758
     12 C         140.7133  140.8288  165.7804 C.3     1  UNL1        0.0695
     13 C         140.4405  141.0747  167.2349 C.ar    1  UNL1        0.0161
     14 C         140.0553  140.1528  168.3536 C.ar    1  UNL1        0.0102
     15 C         139.8451  140.6972  169.7355 C.ar    1  UNL1        0.0576
     16 CL        139.4600  139.7753  170.8542 Cl      1  UNL1       -0.0823
     17 C         140.0201  142.1635  169.9985 C.ar    1  UNL1        0.0145
     18 C         140.4053  143.0855  168.8797 C.ar    1  UNL1        0.0374
     19 C         140.6155  142.5411  167.4979 C.ar    1  UNL1        0.1343
     20 O         140.9965  143.2015  166.2061 O.3     1  UNL1       -0.4825
     21 O         138.8056  143.2836  159.4862 O.3     1  UNL1       -0.4725
     22 C         138.0946  141.0388  160.5842 C.ar    1  UNL1        0.0877
     23 C         137.6826  140.2594  161.7978 C.ar    1  UNL1        0.0107
     24 C         137.5696  140.9454  163.1269 C.ar    1  UNL1        0.0370
     25 C         137.8686  142.4107  163.2426 C.ar    1  UNL1        0.1367
     26 O         137.7556  143.0967  164.5717 O.3     1  UNL1       -0.5054
     27 C         138.2806  143.1902  162.0289 C.ar    1  UNL1        0.0736
     28 C         138.3936  142.5042  160.6998 C.ar    1  UNL1        0.1460
     29 H         137.4982  142.6098  165.3298 H       1  UNL1        0.2922
     30 C         141.0103  138.1197  157.7639 C.3     1  UNL1        0.0792
     31 C         141.5822  138.4405  159.1130 C.3     1  UNL1        0.0392
     32 C         140.6019  139.3160  159.8358 C.3     1  UNL1        0.0952
     33 N         139.4241  139.5365  158.9334 N.am    1  UNL1       -0.2746
     34 C         138.2076  140.3529  159.2550 C.2     1  UNL1        0.2520
     35 O         137.1040  140.4834  158.2475 O.2     1  UNL1       -0.2698
     36 C         139.6766  138.7971  157.6529 C.3     1  UNL1        0.1096
     37 C         143.1501  137.1156  156.6855 C.3     1  UNL1        0.0897
     38 N         141.6583  137.2708  156.7107 N.3     1  UNL1       -0.2699
     39 C         140.8147  136.5769  155.6827 C.3     1  UNL1        0.0897
@<TRIPOS>BOND
     1    37    38    1
     2    38    39    1
     3    30    38    1
     4    30    31    1
     5    31    32    1
     6    32    33    1
     7    33    34   am
     8    34    35    2
     9    34    22    1
    10    22    23   ar
    11    23    24   ar
    12    24    25   ar
    13    25    26    1
    14    25    27   ar
    15    27    28   ar
    16    28    21    1
    17    21     1    1
    18     1     2    1
    19     2     3    1
    20     2     5    1
    21     5     6    1
    22     6     7    1
    23     7     8    1
    24     8     9    1
    25     9    10    1
    26    10    11    1
    27     9    12    1
    28    12    13    1
    29    13    14   ar
    30    14    15   ar
    31    15    16    1
    32    15    17   ar
    33    17    18   ar
    34    18    19   ar
    35    19    20    1
    36    33    36    1
    37    36    30    1
    38    28    22   ar
    39    11     6    1
    40    19    13   ar
    41    20     9    1
    42    26    29    1
    43     3     4    1
@<TRIPOS>MOLECULE
*****
 39 43 0 0 0
SMALL
GASTEIGER

@<TRIPOS>ATOM
      1 C         142.9435  138.4527  165.6749 C.3     1  UNL1        0.2358
      2 C         143.6881  138.8595  164.4379 C.3     1  UNL1        0.1700
      3 O         145.0107  139.5576  164.5541 O.3     1  UNL1       -0.3793
      4 H         145.2370  139.6675  165.4909 H       1  UNL1        0.2106
      5 C         143.1102  138.5680  163.0847 C.3     1  UNL1        0.1056
      6 N         142.8043  139.6936  162.1416 N.3     1  UNL1       -0.2703
      7 C         143.7741  140.0441  161.0523 C.3     1  UNL1        0.0758
      8 C         143.4681  141.1696  160.1092 C.3     1  UNL1        0.0577
      9 C         142.1923  141.9447  160.2554 C.3     1  UNL1        0.1399
     10 C         141.2224  141.5942  161.3446 C.3     1  UNL1        0.0577
     11 C         141.5284  140.4687  162.2877 C.3     1  UNL1        0.0758
     12 C         140.9634  142.8046  160.2780 C.3     1  UNL1        0.0695
     13 C         141.0731  143.7994  159.1606 C.ar    1  UNL1        0.0161
     14 C         140.1598  144.8967  158.7004 C.ar    1  UNL1        0.0102
     15 C         140.5431  145.7489  157.5270 C.ar    1  UNL1        0.0576
     16 CL        139.6299  146.8462  157.0669 Cl      1  UNL1       -0.0823
     17 C         141.8397  145.5038  156.8138 C.ar    1  UNL1        0.0145
     18 C         142.7530  144.4064  157.2739 C.ar    1  UNL1        0.0374
     19 C         142.3697  143.5542  158.4473 C.ar    1  UNL1        0.1343
     20 O         143.0614  142.4080  159.1239 O.3     1  UNL1       -0.4825
     21 O         142.0159  139.4226  166.3449 O.3     1  UNL1       -0.4725
     22 C         142.9076  141.6486  167.3449 C.ar    1  UNL1        0.0877
     23 C         143.3802  142.4455  168.5245 C.ar    1  UNL1        0.0107
     24 C         143.4335  141.8135  169.8838 C.ar    1  UNL1        0.0370
     25 C         143.0144  140.3845  170.0635 C.ar    1  UNL1        0.1367
     26 O         143.0678  139.7525  171.4228 O.3     1  UNL1       -0.5054
     27 C         142.5418  139.5875  168.8838 C.ar    1  UNL1        0.0736
     28 C         142.4884  140.2195  167.5245 C.ar    1  UNL1        0.1460
     29 H         143.3629  140.2503  172.1597 H       1  UNL1        0.2922
     30 C         139.9956  144.1625  164.1548 C.3     1  UNL1        0.0792
     31 C         139.3316  143.8218  165.4561 C.3     1  UNL1        0.0392
     32 C         140.3217  143.0754  166.3002 C.3     1  UNL1        0.0952
     33 N         141.5975  142.9547  165.5208 N.am    1  UNL1       -0.2746
     34 C         142.8543  142.2806  165.9856 C.2     1  UNL1        0.2520
     35 O         144.0577  142.2385  165.0911 O.2     1  UNL1       -0.2698
     36 C         141.3960  143.6265  164.1948 C.3     1  UNL1        0.1096
     37 C         140.1620  145.9384  162.2658 C.3     1  UNL1        0.0897
     38 N         139.3691  144.9080  163.0139 N.3     1  UNL1       -0.2699
     39 C         137.9497  144.6233  162.6212 C.3     1  UNL1        0.0897
@<TRIPOS>BOND
     1    37    38    1
     2    38    39    1
     3    30    38    1
     4    30    31    1
     5    31    32    1
     6    32    33    1
     7    33    34   am
     8    34    35    2
     9    34    22    1
    10    22    23   ar
    11    23    24   ar
    12    24    25   ar
    13    25    26    1
    14    25    27   ar
    15    27    28   ar
    16    28    21    1
    17    21     1    1
    18     1     2    1
    19     2     3    1
    20     2     5    1
    21     5     6    1
    22     6     7    1
    23     7     8    1
    24     8     9    1
    25     9    10    1
    26    10    11    1
    27     9    12    1
    28    12    13    1
    29    13    14   ar
    30    14    15   ar
    31    15    16    1
    32    15    17   ar
    33    17    18   ar
    34    18    19   ar
    35    19    20    1
    36    33    36    1
    37    36    30    1
    38    28    22   ar
    39    11     6    1
    40    19    13   ar
    41    20     9    1
    42    26    29    1
    43     3     4    1
@<TRIPOS>MOLECULE
*****
 39 43 0 0 0
SMALL
GASTEIGER

@<TRIPOS>ATOM
      1 C         139.8672  144.2323  159.1589 C.3     1  UNL1        0.2358
      2 C         140.5902  145.2306  160.0137 C.3     1  UNL1        0.1700
      3 O         141.9021  145.7975  159.5582 O.3     1  UNL1       -0.3793
      4 H         142.1377  145.4165  158.6978 H       1  UNL1        0.2106
      5 C         140.0013  145.6619  161.3241 C.3     1  UNL1        0.1056
      6 N         140.2865  144.8760  162.5696 N.3     1  UNL1       -0.2703
      7 C         141.6876  144.7912  163.0985 C.3     1  UNL1        0.0758
      8 C         141.9727  144.0053  164.3438 C.3     1  UNL1        0.0577
      9 C         140.8568  143.3042  165.0603 C.3     1  UNL1        0.1399
     10 C         139.4558  143.3891  164.5314 C.3     1  UNL1        0.0577
     11 C         139.1706  144.1750  163.2860 C.3     1  UNL1        0.0758
     12 C         139.8488  142.5545  165.8799 C.3     1  UNL1        0.0695
     13 C         140.5691  141.9169  167.0310 C.ar    1  UNL1        0.0161
     14 C         140.0895  141.0585  168.1637 C.ar    1  UNL1        0.0102
     15 C         141.0631  140.5557  169.1881 C.ar    1  UNL1        0.0576
     16 CL        140.5835  139.6973  170.3208 Cl      1  UNL1       -0.0823
     17 C         142.5163  140.9115  169.0798 C.ar    1  UNL1        0.0145
     18 C         142.9959  141.7700  167.9471 C.ar    1  UNL1        0.0374
     19 C         142.0224  142.2727  166.9227 C.ar    1  UNL1        0.1343
     20 O         142.2002  143.1301  165.7048 O.3     1  UNL1       -0.4825
     21 O         140.3730  142.8237  159.0599 O.3     1  UNL1       -0.4725
     22 C         141.9047  141.8239  160.9050 C.ar    1  UNL1        0.0877
     23 C         142.0744  140.9990  162.1463 C.ar    1  UNL1        0.0107
     24 C         140.8822  140.3492  162.7838 C.ar    1  UNL1        0.0370
     25 C         139.5203  140.5241  162.1800 C.ar    1  UNL1        0.1367
     26 O         138.3282  139.8742  162.8175 O.3     1  UNL1       -0.5054
     27 C         139.3506  141.3490  160.9387 C.ar    1  UNL1        0.0736
     28 C         140.5427  141.9989  160.3012 C.ar    1  UNL1        0.1460
     29 H         138.4342  139.3590  163.5929 H       1  UNL1        0.2922
     30 C         145.1850  141.4796  157.1504 C.3     1  UNL1        0.0792
     31 C         144.1676  140.3778  157.1812 C.3     1  UNL1        0.0392
     32 C         143.2615  140.6161  158.3526 C.3     1  UNL1        0.0952
     33 N         143.7190  141.8652  159.0458 N.am    1  UNL1       -0.2746
     34 C         143.0969  142.4737  160.2675 C.2     1  UNL1        0.2520
     35 O         143.6669  143.7322  160.8518 O.2     1  UNL1       -0.2698
     36 C         144.9078  142.3988  158.3028 C.3     1  UNL1        0.1096
     37 C         147.4677  142.5059  156.4533 C.3     1  UNL1        0.0897
     38 N         146.2863  141.6348  156.1439 N.3     1  UNL1       -0.2699
     39 C         146.2063  140.9190  154.8282 C.3     1  UNL1        0.0897
@<TRIPOS>BOND
     1    37    38    1
     2    38    39    1
     3    30    38    1
     4    30    31    1
     5    31    32    1
     6    32    33    1
     7    33    34   am
     8    34    35    2
     9    34    22    1
    10    22    23   ar
    11    23    24   ar
    12    24    25   ar
    13    25    26    1
    14    25    27   ar
    15    27    28   ar
    16    28    21    1
    17    21     1    1
    18     1     2    1
    19     2     3    1
    20     2     5    1
    21     5     6    1
    22     6     7    1
    23     7     8    1
    24     8     9    1
    25     9    10    1
    26    10    11    1
    27     9    12    1
    28    12    13    1
    29    13    14   ar
    30    14    15   ar
    31    15    16    1
    32    15    17   ar
    33    17    18   ar
    34    18    19   ar
    35    19    20    1
    36    33    36    1
    37    36    30    1
    38    28    22   ar
    39    11     6    1
    40    19    13   ar
    41    20     9    1
    42    26    29    1
    43     3     4    1
@<TRIPOS>MOLECULE
*****
 39 43 0 0 0
SMALL
GASTEIGER

@<TRIPOS>ATOM
      1 C         143.1382  140.1815  166.2153 C.3     1  UNL1        0.2358
      2 C         143.5358  139.7113  164.8474 C.3     1  UNL1        0.1700
      3 O         143.0289  138.3983  164.3289 O.3     1  UNL1       -0.3793
      4 H         142.4613  137.9840  164.9975 H       1  UNL1        0.2106
      5 C         144.4404  140.5542  163.9982 C.3     1  UNL1        0.1056
      6 N         143.8686  141.3800  162.8840 N.3     1  UNL1       -0.2703
      7 C         142.6866  142.2676  163.1387 C.3     1  UNL1        0.0758
      8 C         142.1149  143.0933  162.0246 C.3     1  UNL1        0.0577
      9 C         142.7252  143.0314  160.6557 C.3     1  UNL1        0.1399
     10 C         143.9072  142.1438  160.4011 C.3     1  UNL1        0.0577
     11 C         144.4789  141.3181  161.5152 C.3     1  UNL1        0.0758
     12 C         143.2263  143.0732  159.2425 C.3     1  UNL1        0.0695
     13 C         142.3628  144.0279  158.4725 C.ar    1  UNL1        0.0161
     14 C         142.3850  144.4689  157.0390 C.ar    1  UNL1        0.0102
     15 C         141.3725  145.4581  156.5428 C.ar    1  UNL1        0.0576
     16 CL        141.3948  145.8991  155.1093 Cl      1  UNL1       -0.0823
     17 C         140.3377  146.0063  157.4801 C.ar    1  UNL1        0.0145
     18 C         140.3153  145.5653  158.9137 C.ar    1  UNL1        0.0374
     19 C         141.3279  144.5761  159.4099 C.ar    1  UNL1        0.1343
     20 O         141.5519  143.9603  160.7591 O.3     1  UNL1       -0.4825
     21 O         142.3415  139.2836  167.1148 O.3     1  UNL1       -0.4725
     22 C         140.2674  140.3585  168.2518 C.ar    1  UNL1        0.0877
     23 C         139.6004  140.9201  169.4723 C.ar    1  UNL1        0.0107
     24 C         140.3404  140.9686  170.7762 C.ar    1  UNL1        0.0370
     25 C         141.7473  140.4554  170.8596 C.ar    1  UNL1        0.1367
     26 O         142.4873  140.5038  172.1635 O.3     1  UNL1       -0.5054
     27 C         142.4144  139.8937  169.6391 C.ar    1  UNL1        0.0736
     28 C         141.6745  139.8452  168.3352 C.ar    1  UNL1        0.1460
     29 H         142.0706  140.8546  172.9259 H       1  UNL1        0.2922
     30 C         139.1035  142.9687  164.1520 C.3     1  UNL1        0.0792
     31 C         139.9587  143.7140  165.1335 C.3     1  UNL1        0.0392
     32 C         140.2216  142.8087  166.3003 C.3     1  UNL1        0.0952
     33 N         139.5289  141.5040  166.0400 N.am    1  UNL1       -0.2746
     34 C         139.5275  140.3100  166.9479 C.2     1  UNL1        0.2520
     35 O         138.7861  139.0676  166.5520 O.2     1  UNL1       -0.2698
     36 C         138.8378  141.6029  164.7123 C.3     1  UNL1        0.1096
     37 C         138.0048  142.5588  161.8337 C.3     1  UNL1        0.0897
     38 N         138.6019  143.4966  162.8406 N.3     1  UNL1       -0.2699
     39 C         138.6976  144.9622  162.5362 C.3     1  UNL1        0.0897
@<TRIPOS>BOND
     1    37    38    1
     2    38    39    1
     3    30    38    1
     4    30    31    1
     5    31    32    1
     6    32    33    1
     7    33    34   am
     8    34    35    2
     9    34    22    1
    10    22    23   ar
    11    23    24   ar
    12    24    25   ar
    13    25    26    1
    14    25    27   ar
    15    27    28   ar
    16    28    21    1
    17    21     1    1
    18     1     2    1
    19     2     3    1
    20     2     5    1
    21     5     6    1
    22     6     7    1
    23     7     8    1
    24     8     9    1
    25     9    10    1
    26    10    11    1
    27     9    12    1
    28    12    13    1
    29    13    14   ar
    30    14    15   ar
    31    15    16    1
    32    15    17   ar
    33    17    18   ar
    34    18    19   ar
    35    19    20    1
    36    33    36    1
    37    36    30    1
    38    28    22   ar
    39    11     6    1
    40    19    13   ar
    41    20     9    1
    42    26    29    1
    43     3     4    1
@<TRIPOS>MOLECULE
*****
 39 43 0 0 0
SMALL
GASTEIGER

@<TRIPOS>ATOM
      1 C         141.8554  137.9700  161.2992 C.3     1  UNL1        0.2358
      2 C         143.1108  138.6819  160.8901 C.3     1  UNL1        0.1700
      3 O         143.5103  138.7274  159.4450 O.3     1  UNL1       -0.3793
      4 H         142.8532  138.2521  158.9128 H       1  UNL1        0.2106
      5 C         143.9667  139.3482  161.9262 C.3     1  UNL1        0.1056
      6 N         143.3888  139.6954  163.2662 N.3     1  UNL1       -0.2703
      7 C         143.4727  138.7129  164.3965 C.3     1  UNL1        0.0758
      8 C         142.8948  139.0601  165.7364 C.3     1  UNL1        0.0577
      9 C         142.2330  140.3898  165.9461 C.3     1  UNL1        0.1399
     10 C         142.1491  141.3722  164.8158 C.3     1  UNL1        0.0577
     11 C         142.7270  141.0250  163.4758 C.3     1  UNL1        0.0758
     12 C         141.5450  141.6738  166.3036 C.3     1  UNL1        0.0695
     13 C         141.1284  141.5915  167.7423 C.ar    1  UNL1        0.0161
     14 C         140.4127  142.5596  168.6370 C.ar    1  UNL1        0.0102
     15 C         140.1275  142.1929  170.0632 C.ar    1  UNL1        0.0576
     16 CL        139.4118  143.1610  170.9579 Cl      1  UNL1       -0.0823
     17 C         140.5580  140.8579  170.5948 C.ar    1  UNL1        0.0145
     18 C         141.2738  139.8897  169.7001 C.ar    1  UNL1        0.0374
     19 C         141.5590  140.2565  168.2739 C.ar    1  UNL1        0.1343
     20 O         142.2417  139.5138  167.1638 O.3     1  UNL1       -0.4825
     21 O         140.5175  138.5865  161.0162 O.3     1  UNL1       -0.4725
     22 C         138.6250  140.1497  161.8676 C.ar    1  UNL1        0.0877
     23 C         137.7952  140.6905  162.9940 C.ar    1  UNL1        0.0107
     24 C         138.0280  140.2091  164.3955 C.ar    1  UNL1        0.0370
     25 C         139.0907  139.1869  164.6705 C.ar    1  UNL1        0.1367
     26 O         139.3235  138.7055  166.0720 O.3     1  UNL1       -0.5054
     27 C         139.9206  138.6460  163.5441 C.ar    1  UNL1        0.0736
     28 C         139.6877  139.1274  162.1427 C.ar    1  UNL1        0.1460
     29 H         138.8052  139.0434  166.7756 H       1  UNL1        0.2922
     30 C         139.7673  143.7241  158.5669 C.3     1  UNL1        0.0792
     31 C         140.4235  143.8905  159.9055 C.3     1  UNL1        0.0392
     32 C         139.9882  142.7521  160.7798 C.3     1  UNL1        0.0952
     33 N         139.0630  141.8821  159.9817 N.am    1  UNL1       -0.2746
     34 C         138.3921  140.6311  160.4662 C.2     1  UNL1        0.2520
     35 O         137.4884  139.8613  159.5492 O.2     1  UNL1       -0.2698
     36 C         138.9265  142.4828  158.6140 C.3     1  UNL1        0.1096
     37 C         139.7829  144.0983  155.9960 C.3     1  UNL1        0.0897
     38 N         139.9244  144.6384  157.3882 N.3     1  UNL1       -0.2699
     39 C         140.2229  146.0928  157.6017 C.3     1  UNL1        0.0897
@<TRIPOS>BOND
     1    37    38    1
     2    38    39    1
     3    30    38    1
     4    30    31    1
     5    31    32    1
     6    32    33    1
     7    33    34   am
     8    34    35    2
     9    34    22    1
    10    22    23   ar
    11    23    24   ar
    12    24    25   ar
    13    25    26    1
    14    25    27   ar
    15    27    28   ar
    16    28    21    1
    17    21     1    1
    18     1     2    1
    19     2     3    1
    20     2     5    1
    21     5     6    1
    22     6     7    1
    23     7     8    1
    24     8     9    1
    25     9    10    1
    26    10    11    1
    27     9    12    1
    28    12    13    1
    29    13    14   ar
    30    14    15   ar
    31    15    16    1
    32    15    17   ar
    33    17    18   ar
    34    18    19   ar
    35    19    20    1
    36    33    36    1
    37    36    30    1
    38    28    22   ar
    39    11     6    1
    40    19    13   ar
    41    20     9    1
    42    26    29    1
    43     3     4    1
@<TRIPOS>MOLECULE
*****
 39 43 0 0 0
SMALL
GASTEIGER

@<TRIPOS>ATOM
      1 C         139.1432  139.7087  160.2111 C.3     1  UNL1        0.2358
      2 C         137.9649  139.2348  161.0094 C.3     1  UNL1        0.1700
      3 O         136.5719  139.5037  160.5223 O.3     1  UNL1       -0.3793
      4 H         136.6108  139.9899  159.6839 H       1  UNL1        0.2106
      5 C         138.1797  138.4921  162.2948 C.3     1  UNL1        0.1056
      6 N         138.8604  139.1690  163.4474 N.3     1  UNL1       -0.2703
      7 C         138.0939  140.1207  164.3172 C.3     1  UNL1        0.0758
      8 C         138.7746  140.7976  165.4698 C.3     1  UNL1        0.0577
      9 C         140.2218  140.5227  165.7526 C.3     1  UNL1        0.1399
     10 C         140.9883  139.5710  164.8828 C.3     1  UNL1        0.0577
     11 C         140.3077  138.8942  163.7302 C.3     1  UNL1        0.0758
     12 C         141.6559  140.3477  166.1559 C.3     1  UNL1        0.0695
     13 C         141.9084  141.2103  167.3569 C.ar    1  UNL1        0.0161
     14 C         143.1369  141.4424  168.1856 C.ar    1  UNL1        0.0102
     15 C         143.0873  142.3827  169.3532 C.ar    1  UNL1        0.0576
     16 CL        144.3159  142.6148  170.1819 Cl      1  UNL1       -0.0823
     17 C         141.8092  143.0908  169.6922 C.ar    1  UNL1        0.0145
     18 C         140.5806  142.8587  168.8635 C.ar    1  UNL1        0.0374
     19 C         140.6302  141.9185  167.6958 C.ar    1  UNL1        0.1343
     20 O         139.5879  141.4936  166.7043 O.3     1  UNL1       -0.4825
     21 O         139.4213  141.1772  160.0839 O.3     1  UNL1       -0.4725
     22 C         141.2124  141.9469  161.8014 C.ar    1  UNL1        0.0877
     23 C         141.5917  142.7459  163.0128 C.ar    1  UNL1        0.0107
     24 C         140.5593  143.5744  163.7182 C.ar    1  UNL1        0.0370
     25 C         139.1475  143.6038  163.2123 C.ar    1  UNL1        0.1367
     26 O         138.1151  144.4323  163.9177 O.3     1  UNL1       -0.5054
     27 C         138.7682  142.8047  162.0008 C.ar    1  UNL1        0.0736
     28 C         139.8006  141.9763  161.2954 C.ar    1  UNL1        0.1460
     29 H         138.3521  144.9315  164.6745 H       1  UNL1        0.2922
     30 C         144.4473  141.8820  157.9924 C.3     1  UNL1        0.0792
     31 C         143.6672  143.1574  158.1153 C.3     1  UNL1        0.0392
     32 C         142.7473  143.0265  159.2928 C.3     1  UNL1        0.0952
     33 N         142.9587  141.6703  159.8977 N.am    1  UNL1       -0.2746
     34 C         142.2449  141.1184  161.0959 C.2     1  UNL1        0.2520
     35 O         142.5634  139.7378  161.5887 O.2     1  UNL1       -0.2698
     36 C         144.0094  140.9630  159.0941 C.3     1  UNL1        0.1096
     37 C         145.3025  140.4073  156.0319 C.3     1  UNL1        0.0897
     38 N         145.4832  141.5789  156.9509 N.3     1  UNL1       -0.2699
     39 C         146.7000  142.4476  156.8283 C.3     1  UNL1        0.0897
@<TRIPOS>BOND
     1    37    38    1
     2    38    39    1
     3    30    38    1
     4    30    31    1
     5    31    32    1
     6    32    33    1
     7    33    34   am
     8    34    35    2
     9    34    22    1
    10    22    23   ar
    11    23    24   ar
    12    24    25   ar
    13    25    26    1
    14    25    27   ar
    15    27    28   ar
    16    28    21    1
    17    21     1    1
    18     1     2    1
    19     2     3    1
    20     2     5    1
    21     5     6    1
    22     6     7    1
    23     7     8    1
    24     8     9    1
    25     9    10    1
    26    10    11    1
    27     9    12    1
    28    12    13    1
    29    13    14   ar
    30    14    15   ar
    31    15    16    1
    32    15    17   ar
    33    17    18   ar
    34    18    19   ar
    35    19    20    1
    36    33    36    1
    37    36    30    1
    38    28    22   ar
    39    11     6    1
    40    19    13   ar
    41    20     9    1
    42    26    29    1
    43     3     4    1
@<TRIPOS>MOLECULE
*****
 39 43 0 0 0
SMALL
GASTEIGER

@<TRIPOS>ATOM
      1 C         138.2560  142.3696  159.2069 C.3     1  UNL1        0.2358
      2 C         138.9186  141.0271  159.3011 C.3     1  UNL1        0.1700
      3 O         140.1025  140.7127  158.4353 O.3     1  UNL1       -0.3793
      4 H         140.3080  141.4794  157.8777 H       1  UNL1        0.2106
      5 C         138.3973  139.9991  160.2609 C.3     1  UNL1        0.1056
      6 N         138.8574  140.0046  161.6887 N.3     1  UNL1       -0.2703
      7 C         140.3228  140.0565  162.0043 C.3     1  UNL1        0.0758
      8 C         140.7828  140.0619  163.4320 C.3     1  UNL1        0.0577
      9 C         139.7773  140.0155  164.5441 C.3     1  UNL1        0.1399
     10 C         138.3118  139.9636  164.2285 C.3     1  UNL1        0.0577
     11 C         137.8519  139.9581  162.8008 C.3     1  UNL1        0.0758
     12 C         138.8935  139.9727  165.7553 C.3     1  UNL1        0.0695
     13 C         139.7719  139.9955  166.9711 C.ar    1  UNL1        0.0161
     14 C         139.4570  139.9718  168.4375 C.ar    1  UNL1        0.0102
     15 C         140.5687  140.0049  169.4440 C.ar    1  UNL1        0.0576
     16 CL        140.2537  139.9812  170.9103 Cl      1  UNL1       -0.0823
     17 C         141.9953  140.0617  168.9841 C.ar    1  UNL1        0.0145
     18 C         142.3103  140.0854  167.5177 C.ar    1  UNL1        0.0374
     19 C         141.1986  140.0522  166.5112 C.ar    1  UNL1        0.1343
     20 O         141.2019  140.0646  165.0113 O.3     1  UNL1       -0.4825
     21 O         139.0034  143.6050  159.6132 O.3     1  UNL1       -0.4725
     22 C         141.0779  143.9997  161.1267 C.ar    1  UNL1        0.0877
     23 C         141.6911  144.0901  162.4926 C.ar    1  UNL1        0.0107
     24 C         140.8428  143.8761  163.7111 C.ar    1  UNL1        0.0370
     25 C         139.3815  143.5718  163.5637 C.ar    1  UNL1        0.1367
     26 O         138.5333  143.3579  164.7822 O.3     1  UNL1       -0.5054
     27 C         138.7683  143.4814  162.1977 C.ar    1  UNL1        0.0736
     28 C         139.6165  143.6954  160.9792 C.ar    1  UNL1        0.1460
     29 H         138.9163  143.4143  165.6355 H       1  UNL1        0.2922
     30 C         144.3995  141.8525  158.0717 C.3     1  UNL1        0.0792
     31 C         143.9290  140.9679  159.1881 C.3     1  UNL1        0.0392
     32 C         142.9452  141.7447  160.0119 C.3     1  UNL1        0.0952
     33 N         142.8077  143.1094  159.4047 N.am    1  UNL1       -0.2746
     34 C         141.9262  144.2137  159.9082 C.2     1  UNL1        0.2520
     35 O         141.8928  145.5319  159.1932 O.2     1  UNL1       -0.2698
     36 C         143.7065  143.1760  158.2056 C.3     1  UNL1        0.1096
     37 C         146.6109  142.3220  156.7914 C.3     1  UNL1        0.0897
     38 N         145.3892  141.4791  157.0082 N.3     1  UNL1       -0.2699
     39 C         145.1573  140.2628  156.1616 C.3     1  UNL1        0.0897
@<TRIPOS>BOND
     1    37    38    1
     2    38    39    1
     3    30    38    1
     4    30    31    1
     5    31    32    1
     6    32    33    1
     7    33    34   am
     8    34    35    2
     9    34    22    1
    10    22    23   ar
    11    23    24   ar
    12    24    25   ar
    13    25    26    1
    14    25    27   ar
    15    27    28   ar
    16    28    21    1
    17    21     1    1
    18     1     2    1
    19     2     3    1
    20     2     5    1
    21     5     6    1
    22     6     7    1
    23     7     8    1
    24     8     9    1
    25     9    10    1
    26    10    11    1
    27     9    12    1
    28    12    13    1
    29    13    14   ar
    30    14    15   ar
    31    15    16    1
    32    15    17   ar
    33    17    18   ar
    34    18    19   ar
    35    19    20    1
    36    33    36    1
    37    36    30    1
    38    28    22   ar
    39    11     6    1
    40    19    13   ar
    41    20     9    1
    42    26    29    1
    43     3     4    1
@<TRIPOS>MOLECULE
*****
 39 43 0 0 0
SMALL
GASTEIGER

@<TRIPOS>ATOM
      1 C         139.8936  143.9667  159.5470 C.3     1  UNL1        0.2358
      2 C         140.3019  144.9304  160.6216 C.3     1  UNL1        0.1700
      3 O         139.4318  146.1096  160.9416 O.3     1  UNL1       -0.3793
      4 H         138.6506  146.1005  160.3667 H       1  UNL1        0.2106
      5 C         141.5802  144.7148  161.3761 C.3     1  UNL1        0.1056
      6 N         141.5677  143.9609  162.6729 N.3     1  UNL1       -0.2703
      7 C         140.5772  144.3210  163.7403 C.3     1  UNL1        0.0758
      8 C         140.5647  143.5672  165.0370 C.3     1  UNL1        0.0577
      9 C         141.5427  142.4532  165.2664 C.3     1  UNL1        0.1399
     10 C         142.5332  142.0931  164.1990 C.3     1  UNL1        0.0577
     11 C         142.5457  142.8470  162.9023 C.3     1  UNL1        0.0758
     12 C         142.4549  141.3216  165.6372 C.3     1  UNL1        0.0695
     13 C         142.0918  140.8676  167.0200 C.ar    1  UNL1        0.0161
     14 C         142.6492  139.7892  167.9011 C.ar    1  UNL1        0.0102
     15 C         142.0701  139.5619  169.2661 C.ar    1  UNL1        0.0576
     16 CL        142.6275  138.4835  170.1472 Cl      1  UNL1       -0.0823
     17 C         140.9336  140.4129  169.7499 C.ar    1  UNL1        0.0145
     18 C         140.3761  141.4913  168.8687 C.ar    1  UNL1        0.0374
     19 C         140.9552  141.7187  167.5038 C.ar    1  UNL1        0.1343
     20 O         140.6159  142.6986  166.4201 O.3     1  UNL1       -0.4825
     21 O         138.6073  143.2052  159.6716 O.3     1  UNL1       -0.4725
     22 C         138.7479  140.7735  160.5755 C.ar    1  UNL1        0.0877
     23 C         138.5636  139.7905  161.6933 C.ar    1  UNL1        0.0107
     24 C         138.0546  140.2561  163.0253 C.ar    1  UNL1        0.0370
     25 C         137.7298  141.7048  163.2393 C.ar    1  UNL1        0.1367
     26 O         137.2207  142.1704  164.5713 O.3     1  UNL1       -0.5054
     27 C         137.9140  142.6879  162.1214 C.ar    1  UNL1        0.0736
     28 C         138.4231  142.2222  160.7895 C.ar    1  UNL1        0.1460
     29 H         137.1056  141.5563  165.2696 H       1  UNL1        0.2922
     30 C         142.8662  140.0368  157.8417 C.3     1  UNL1        0.0792
     31 C         143.1290  140.5740  159.2174 C.3     1  UNL1        0.0392
     32 C         141.8090  140.7409  159.9099 C.3     1  UNL1        0.0952
     33 N         140.7303  140.3069  158.9623 N.am    1  UNL1       -0.2746
     34 C         139.2569  140.3078  159.2435 C.2     1  UNL1        0.2520
     35 O         138.2925  139.8431  158.1928 O.2     1  UNL1       -0.2698
     36 C         141.3837  139.8718  157.6841 C.3     1  UNL1        0.1096
     37 C         143.7305  138.5295  155.9103 C.3     1  UNL1        0.0897
     38 N         143.9037  139.7204  156.8057 N.3     1  UNL1       -0.2699
     39 C         145.1143  140.5948  156.6651 C.3     1  UNL1        0.0897
@<TRIPOS>BOND
     1    37    38    1
     2    38    39    1
     3    30    38    1
     4    30    31    1
     5    31    32    1
     6    32    33    1
     7    33    34   am
     8    34    35    2
     9    34    22    1
    10    22    23   ar
    11    23    24   ar
    12    24    25   ar
    13    25    26    1
    14    25    27   ar
    15    27    28   ar
    16    28    21    1
    17    21     1    1
    18     1     2    1
    19     2     3    1
    20     2     5    1
    21     5     6    1
    22     6     7    1
    23     7     8    1
    24     8     9    1
    25     9    10    1
    26    10    11    1
    27     9    12    1
    28    12    13    1
    29    13    14   ar
    30    14    15   ar
    31    15    16    1
    32    15    17   ar
    33    17    18   ar
    34    18    19   ar
    35    19    20    1
    36    33    36    1
    37    36    30    1
    38    28    22   ar
    39    11     6    1
    40    19    13   ar
    41    20     9    1
    42    26    29    1
    43     3     4    1
