@<TRIPOS>MOLECULE
*****
 27 29 0 0 0
SMALL
GASTEIGER

@<TRIPOS>ATOM
      1 C         138.1719  144.1136  163.5016 C.3     1  UNL1        0.0896
      2 N         138.5717  142.9446  164.3522 N.3     1  UNL1       -0.2715
      3 C         139.5554  143.1314  165.4691 C.3     1  UNL1        0.0725
      4 C         139.9552  141.9624  166.3198 C.3     1  UNL1        0.0238
      5 C         139.3712  140.6066  166.0536 C.3     1  UNL1        0.0489
      6 C         138.3875  140.4199  164.9368 C.3     1  UNL1        0.0238
      7 C         137.9877  141.5888  164.0861 C.3     1  UNL1        0.0725
      8 C         140.2593  140.2836  167.2186 C.ar    1  UNL1       -0.0202
      9 C         139.6943  140.2575  168.6078 C.ar    1  UNL1       -0.0019
     10 C         140.5822  139.9345  169.7727 C.ar    1  UNL1        0.0293
     11 C         142.0353  139.6376  169.5483 C.ar    1  UNL1        0.1401
     12 F         142.9234  139.3145  170.7133 F       1  UNL1       -0.2042
     13 C         142.6005  139.6637  168.1591 C.ar    1  UNL1        0.0293
     14 C         141.7124  139.9867  166.9942 C.ar    1  UNL1       -0.0019
     15 C         139.0957  139.1386  166.1920 C.3     1  UNL1        0.1467
     16 O         138.9861  138.2775  164.9687 O.3     1  UNL1       -0.3470
     17 C         140.0609  137.2790  164.6558 C.3     1  UNL1        0.1875
     18 C         141.1773  137.6461  163.7237 C.ar    1  UNL1        0.0888
     19 C         142.3706  138.3938  164.2406 C.ar    1  UNL1        0.0211
     20 C         143.4870  138.7609  163.3085 C.ar    1  UNL1        0.0742
     21 C         143.4102  138.3804  161.8596 C.ar    1  UNL1        0.0245
     22 C         142.2169  137.6328  161.3427 C.ar    1  UNL1        0.0985
     23 N         141.1005  137.2656  162.2748 N.ar    1  UNL1       -0.2457
     24 C         144.6804  139.5086  163.8253 C.3     1  UNL1        0.4187
     25 F         145.8736  140.2562  164.3421 F       1  UNL1       -0.1659
     26 F         144.5508  138.8042  165.1433 F       1  UNL1       -0.1659
     27 F         144.8099  140.2129  162.5072 F       1  UNL1       -0.1659
@<TRIPOS>BOND
     1     1     2    1
     2     2     3    1
     3     3     4    1
     4     4     5    1
     5     5    15    1
     6    15    16    1
     7    16    17    1
     8    17    18    1
     9    18    19   ar
    10    19    20   ar
    11    20    24    1
    12    24    25    1
    13    24    26    1
    14    24    27    1
    15    20    21   ar
    16    21    22   ar
    17    22    23   ar
    18     5     8    1
    19     8     9   ar
    20     9    10   ar
    21    10    11   ar
    22    11    12    1
    23    11    13   ar
    24    13    14   ar
    25     5     6    1
    26     6     7    1
    27     7     2    1
    28    23    18   ar
    29    14     8   ar
@<TRIPOS>MOLECULE
*****
 27 29 0 0 0
SMALL
GASTEIGER

@<TRIPOS>ATOM
      1 C         140.8314  141.6580  171.1929 C.3     1  UNL1        0.0896
      2 N         141.0287  141.0816  169.8221 N.3     1  UNL1       -0.2715
      3 C         139.8511  140.5681  169.0478 C.3     1  UNL1        0.0725
      4 C         140.0484  139.9918  167.6771 C.3     1  UNL1        0.0238
      5 C         141.4233  139.9290  167.0806 C.3     1  UNL1        0.0489
      6 C         142.6008  140.4425  167.8549 C.3     1  UNL1        0.0238
      7 C         142.4035  141.0189  169.2257 C.3     1  UNL1        0.0725
      8 C         140.6271  139.3202  165.9645 C.ar    1  UNL1       -0.0202
      9 C         141.2070  138.1988  165.1546 C.ar    1  UNL1       -0.0019
     10 C         140.4109  137.5900  164.0386 C.ar    1  UNL1        0.0293
     11 C         139.0349  138.1027  163.7325 C.ar    1  UNL1        0.1401
     12 F         138.2388  137.4939  162.6164 F       1  UNL1       -0.2042
     13 C         138.4550  139.2242  164.5424 C.ar    1  UNL1        0.0293
     14 C         139.2511  139.8330  165.6584 C.ar    1  UNL1       -0.0019
     15 C         142.5217  139.6548  166.0966 C.3     1  UNL1        0.1467
     16 O         143.4525  140.7568  165.6852 O.3     1  UNL1       -0.3470
     17 C         143.2311  141.4814  164.3906 C.3     1  UNL1        0.1875
     18 C         141.8534  141.9393  164.0135 C.ar    1  UNL1        0.0888
     19 C         141.1401  142.9494  164.8626 C.ar    1  UNL1        0.0211
     20 C         139.7624  143.4072  164.4854 C.ar    1  UNL1        0.0742
     21 C         139.0980  142.8550  163.2592 C.ar    1  UNL1        0.0245
     22 C         139.8113  141.8449  162.4101 C.ar    1  UNL1        0.0985
     23 N         141.1890  141.3870  162.7872 N.ar    1  UNL1       -0.2457
     24 C         139.0490  144.4173  165.3345 C.3     1  UNL1        0.4187
     25 F         138.3357  145.4274  166.1835 F       1  UNL1       -0.1659
     26 F         138.3850  144.9766  164.1112 F       1  UNL1       -0.1659
     27 F         139.7130  143.8580  166.5577 F       1  UNL1       -0.1659
@<TRIPOS>BOND
     1     1     2    1
     2     2     3    1
     3     3     4    1
     4     4     5    1
     5     5    15    1
     6    15    16    1
     7    16    17    1
     8    17    18    1
     9    18    19   ar
    10    19    20   ar
    11    20    24    1
    12    24    25    1
    13    24    26    1
    14    24    27    1
    15    20    21   ar
    16    21    22   ar
    17    22    23   ar
    18     5     8    1
    19     8     9   ar
    20     9    10   ar
    21    10    11   ar
    22    11    12    1
    23    11    13   ar
    24    13    14   ar
    25     5     6    1
    26     6     7    1
    27     7     2    1
    28    23    18   ar
    29    14     8   ar
@<TRIPOS>MOLECULE
*****
 27 29 0 0 0
SMALL
GASTEIGER

@<TRIPOS>ATOM
      1 C         140.9705  140.8864  171.1184 C.3     1  UNL1        0.0896
      2 N         141.0448  140.4814  169.6760 N.3     1  UNL1       -0.2715
      3 C         139.7853  140.3043  168.8809 C.3     1  UNL1        0.0725
      4 C         139.8597  139.8993  167.4385 C.3     1  UNL1        0.0238
      5 C         141.1935  139.6714  166.7913 C.3     1  UNL1        0.0489
      6 C         142.4530  139.8485  167.5864 C.3     1  UNL1        0.0238
      7 C         142.3786  140.2535  169.0288 C.3     1  UNL1        0.0725
      8 C         140.2880  139.3800  165.6314 C.ar    1  UNL1       -0.0202
      9 C         139.1866  140.3361  165.2812 C.ar    1  UNL1       -0.0019
     10 C         138.2811  140.0447  164.1214 C.ar    1  UNL1        0.0293
     11 C         138.4771  138.7973  163.3118 C.ar    1  UNL1        0.1401
     12 F         137.5716  138.5059  162.1520 F       1  UNL1       -0.2042
     13 C         139.5785  137.8411  163.6620 C.ar    1  UNL1        0.0293
     14 C         140.4840  138.1325  164.8219 C.ar    1  UNL1       -0.0019
     15 C         142.2129  139.3423  165.7412 C.3     1  UNL1        0.1467
     16 O         143.3312  140.3002  165.4553 O.3     1  UNL1       -0.3470
     17 C         143.3961  141.0038  164.1322 C.3     1  UNL1        0.1875
     18 C         142.9379  142.4274  164.0165 C.ar    1  UNL1        0.0888
     19 C         141.5517  142.8064  164.4466 C.ar    1  UNL1        0.0211
     20 C         141.0935  144.2300  164.3309 C.ar    1  UNL1        0.0742
     21 C         142.0213  145.2746  163.7852 C.ar    1  UNL1        0.0245
     22 C         143.4075  144.8956  163.3551 C.ar    1  UNL1        0.0985
     23 N         143.8658  143.4721  163.4708 N.ar    1  UNL1       -0.2457
     24 C         139.7072  144.6090  164.7609 C.3     1  UNL1        0.4187
     25 F         138.3211  144.9880  165.1910 F       1  UNL1       -0.1659
     26 F         139.8788  143.8094  166.0184 F       1  UNL1       -0.1659
     27 F         139.5358  145.4086  163.5034 F       1  UNL1       -0.1659
@<TRIPOS>BOND
     1     1     2    1
     2     2     3    1
     3     3     4    1
     4     4     5    1
     5     5    15    1
     6    15    16    1
     7    16    17    1
     8    17    18    1
     9    18    19   ar
    10    19    20   ar
    11    20    24    1
    12    24    25    1
    13    24    26    1
    14    24    27    1
    15    20    21   ar
    16    21    22   ar
    17    22    23   ar
    18     5     8    1
    19     8     9   ar
    20     9    10   ar
    21    10    11   ar
    22    11    12    1
    23    11    13   ar
    24    13    14   ar
    25     5     6    1
    26     6     7    1
    27     7     2    1
    28    23    18   ar
    29    14     8   ar
@<TRIPOS>MOLECULE
*****
 27 29 0 0 0
SMALL
GASTEIGER

@<TRIPOS>ATOM
      1 C         140.3919  139.9157  170.7486 C.3     1  UNL1        0.0896
      2 N         140.8528  140.5613  169.4755 N.3     1  UNL1       -0.2715
      3 C         142.1617  140.1604  168.8623 C.3     1  UNL1        0.0725
      4 C         142.6226  140.8060  167.5892 C.3     1  UNL1        0.0238
      5 C         141.7745  141.8525  166.9292 C.3     1  UNL1        0.0489
      6 C         140.4656  142.2534  167.5424 C.3     1  UNL1        0.0238
      7 C         140.0047  141.6078  168.8155 C.3     1  UNL1        0.0725
      8 C         142.9281  141.8099  165.9713 C.ar    1  UNL1       -0.0202
      9 C         143.2947  140.5219  165.2957 C.ar    1  UNL1       -0.0019
     10 C         144.4482  140.4793  164.3378 C.ar    1  UNL1        0.0293
     11 C         145.2351  141.7247  164.0556 C.ar    1  UNL1        0.1401
     12 F         146.3887  141.6821  163.0977 F       1  UNL1       -0.2042
     13 C         144.8685  143.0128  164.7313 C.ar    1  UNL1        0.0293
     14 C         143.7149  143.0554  165.6892 C.ar    1  UNL1       -0.0019
     15 C         141.3270  142.8843  165.9366 C.3     1  UNL1        0.1467
     16 O         140.0070  142.7325  165.2406 O.3     1  UNL1       -0.3470
     17 C         139.8767  141.7971  164.0752 C.3     1  UNL1        0.1875
     18 C         139.6667  140.3306  164.3104 C.ar    1  UNL1        0.0888
     19 C         138.7739  139.8700  165.4243 C.ar    1  UNL1        0.0211
     20 C         138.5640  138.4035  165.6595 C.ar    1  UNL1        0.0742
     21 C         139.2468  137.3976  164.7809 C.ar    1  UNL1        0.0245
     22 C         140.1397  137.8583  163.6670 C.ar    1  UNL1        0.0985
     23 N         140.3496  139.3248  163.4318 N.ar    1  UNL1       -0.2457
     24 C         137.6711  137.9428  166.7734 C.3     1  UNL1        0.4187
     25 F         136.7783  137.4821  167.8872 F       1  UNL1       -0.1659
     26 F         137.6790  139.3267  167.3520 F       1  UNL1       -0.1659
     27 F         137.6632  136.5589  166.1946 F       1  UNL1       -0.1659
@<TRIPOS>BOND
     1     1     2    1
     2     2     3    1
     3     3     4    1
     4     4     5    1
     5     5    15    1
     6    15    16    1
     7    16    17    1
     8    17    18    1
     9    18    19   ar
    10    19    20   ar
    11    20    24    1
    12    24    25    1
    13    24    26    1
    14    24    27    1
    15    20    21   ar
    16    21    22   ar
    17    22    23   ar
    18     5     8    1
    19     8     9   ar
    20     9    10   ar
    21    10    11   ar
    22    11    12    1
    23    11    13   ar
    24    13    14   ar
    25     5     6    1
    26     6     7    1
    27     7     2    1
    28    23    18   ar
    29    14     8   ar
@<TRIPOS>MOLECULE
*****
 27 29 0 0 0
SMALL
GASTEIGER

@<TRIPOS>ATOM
      1 C         144.7832  142.6294  163.0295 C.3     1  UNL1        0.0896
      2 N         143.6025  142.6789  163.9534 N.3     1  UNL1       -0.2715
      3 C         143.5199  141.7349  165.1161 C.3     1  UNL1        0.0725
      4 C         142.3392  141.7844  166.0400 C.3     1  UNL1        0.0238
      5 C         141.2411  142.7778  165.8011 C.3     1  UNL1        0.0489
      6 C         141.3237  143.7218  164.6383 C.3     1  UNL1        0.0238
      7 C         142.5044  143.6724  163.7145 C.3     1  UNL1        0.0725
      8 C         140.7135  142.0967  167.0290 C.ar    1  UNL1       -0.0202
      9 C         140.5265  142.8758  168.2970 C.ar    1  UNL1       -0.0019
     10 C         139.9989  142.1947  169.5249 C.ar    1  UNL1        0.0293
     11 C         139.6584  140.7344  169.4847 C.ar    1  UNL1        0.1401
     12 F         139.1308  140.0533  170.7126 F       1  UNL1       -0.2042
     13 C         139.8454  139.9552  168.2167 C.ar    1  UNL1        0.0293
     14 C         140.3730  140.6364  166.9888 C.ar    1  UNL1       -0.0019
     15 C         139.9597  143.5348  165.9886 C.3     1  UNL1        0.1467
     16 O         139.1688  143.9781  164.7937 O.3     1  UNL1       -0.3470
     17 C         137.8873  143.2822  164.4422 C.3     1  UNL1        0.1875
     18 C         137.9217  141.9546  163.7448 C.ar    1  UNL1        0.0888
     19 C         138.2771  140.7144  164.5101 C.ar    1  UNL1        0.0211
     20 C         138.3115  139.3869  163.8126 C.ar    1  UNL1        0.0742
     21 C         137.9904  139.2995  162.3501 C.ar    1  UNL1        0.0245
     22 C         137.6350  140.5397  161.5848 C.ar    1  UNL1        0.0985
     23 N         137.6006  141.8672  162.2822 N.ar    1  UNL1       -0.2457
     24 C         138.6669  138.1466  164.5779 C.3     1  UNL1        0.4187
     25 F         139.0223  136.9064  165.3430 F       1  UNL1       -0.1659
     26 F         139.3877  137.6117  163.3760 F       1  UNL1       -0.1659
     27 F         137.9461  138.6815  165.7796 F       1  UNL1       -0.1659
@<TRIPOS>BOND
     1     1     2    1
     2     2     3    1
     3     3     4    1
     4     4     5    1
     5     5    15    1
     6    15    16    1
     7    16    17    1
     8    17    18    1
     9    18    19   ar
    10    19    20   ar
    11    20    24    1
    12    24    25    1
    13    24    26    1
    14    24    27    1
    15    20    21   ar
    16    21    22   ar
    17    22    23   ar
    18     5     8    1
    19     8     9   ar
    20     9    10   ar
    21    10    11   ar
    22    11    12    1
    23    11    13   ar
    24    13    14   ar
    25     5     6    1
    26     6     7    1
    27     7     2    1
    28    23    18   ar
    29    14     8   ar
@<TRIPOS>MOLECULE
*****
 27 29 0 0 0
SMALL
GASTEIGER

@<TRIPOS>ATOM
      1 C         141.2941  140.9308  171.0076 C.3     1  UNL1        0.0896
      2 N         141.4315  141.3206  169.5656 N.3     1  UNL1       -0.2715
      3 C         140.4395  142.2587  168.9445 C.3     1  UNL1        0.0725
      4 C         140.5769  142.6485  167.5026 C.3     1  UNL1        0.0238
      5 C         141.7062  142.1002  166.6817 C.3     1  UNL1        0.0489
      6 C         142.6983  141.1621  167.3029 C.3     1  UNL1        0.0238
      7 C         142.5609  140.7723  168.7448 C.3     1  UNL1        0.0725
      8 C         141.0242  142.9505  165.6512 C.ar    1  UNL1       -0.0202
      9 C         141.8390  143.7935  164.7158 C.ar    1  UNL1       -0.0019
     10 C         141.1570  144.6437  163.6853 C.ar    1  UNL1        0.0293
     11 C         139.6601  144.6509  163.5903 C.ar    1  UNL1        0.1401
     12 F         138.9780  145.5012  162.5598 F       1  UNL1       -0.2042
     13 C         138.8451  143.8079  164.5258 C.ar    1  UNL1        0.0293
     14 C         139.5272  142.9576  165.5563 C.ar    1  UNL1       -0.0019
     15 C         142.5988  141.8472  165.5030 C.3     1  UNL1        0.1467
     16 O         143.1343  140.4690  165.2499 O.3     1  UNL1       -0.3470
     17 C         142.7838  139.7496  163.9812 C.3     1  UNL1        0.1875
     18 C         141.4443  139.0897  163.8387 C.ar    1  UNL1        0.0888
     19 C         140.4921  139.0676  164.9975 C.ar    1  UNL1        0.0211
     20 C         139.1526  138.4078  164.8549 C.ar    1  UNL1        0.0742
     21 C         138.7652  137.7701  163.5537 C.ar    1  UNL1        0.0245
     22 C         139.7175  137.7923  162.3948 C.ar    1  UNL1        0.0985
     23 N         141.0570  138.4521  162.5373 N.ar    1  UNL1       -0.2457
     24 C         138.2003  138.3856  166.0138 C.3     1  UNL1        0.4187
     25 F         137.2480  138.3634  167.1725 F       1  UNL1       -0.1659
     26 F         138.1766  139.8854  166.0229 F       1  UNL1       -0.1659
     27 F         138.2240  136.8858  166.0045 F       1  UNL1       -0.1659
@<TRIPOS>BOND
     1     1     2    1
     2     2     3    1
     3     3     4    1
     4     4     5    1
     5     5    15    1
     6    15    16    1
     7    16    17    1
     8    17    18    1
     9    18    19   ar
    10    19    20   ar
    11    20    24    1
    12    24    25    1
    13    24    26    1
    14    24    27    1
    15    20    21   ar
    16    21    22   ar
    17    22    23   ar
    18     5     8    1
    19     8     9   ar
    20     9    10   ar
    21    10    11   ar
    22    11    12    1
    23    11    13   ar
    24    13    14   ar
    25     5     6    1
    26     6     7    1
    27     7     2    1
    28    23    18   ar
    29    14     8   ar
@<TRIPOS>MOLECULE
*****
 27 29 0 0 0
SMALL
GASTEIGER

@<TRIPOS>ATOM
      1 C         141.2555  140.9698  171.4503 C.3     1  UNL1        0.0896
      2 N         141.4913  141.1162  169.9762 N.3     1  UNL1       -0.2715
      3 C         142.1674  140.0168  169.2119 C.3     1  UNL1        0.0725
      4 C         142.4032  140.1633  167.7378 C.3     1  UNL1        0.0238
      5 C         141.9629  141.4091  167.0280 C.3     1  UNL1        0.0489
      6 C         141.2868  142.5085  167.7922 C.3     1  UNL1        0.0238
      7 C         141.0510  142.3621  169.2663 C.3     1  UNL1        0.0725
      8 C         142.5578  140.6509  165.8785 C.ar    1  UNL1       -0.0202
      9 C         143.5230  141.3290  164.9520 C.ar    1  UNL1       -0.0019
     10 C         144.1180  140.5709  163.8026 C.ar    1  UNL1        0.0293
     11 C         143.7477  139.1345  163.5797 C.ar    1  UNL1        0.1401
     12 F         144.3427  138.3763  162.4303 F       1  UNL1       -0.2042
     13 C         142.7825  138.4563  164.5062 C.ar    1  UNL1        0.0293
     14 C         142.1876  139.2145  165.6556 C.ar    1  UNL1       -0.0019
     15 C         141.7292  142.3917  165.9189 C.3     1  UNL1        0.1467
     16 O         140.4416  143.1586  165.8553 O.3     1  UNL1       -0.3470
     17 C         139.3441  142.7067  164.9380 C.3     1  UNL1        0.1875
     18 C         139.2200  141.2568  164.5743 C.ar    1  UNL1        0.0888
     19 C         138.6716  140.2780  165.5700 C.ar    1  UNL1        0.0211
     20 C         138.5476  138.8281  165.2061 C.ar    1  UNL1        0.0742
     21 C         138.9719  138.3569  163.8468 C.ar    1  UNL1        0.0245
     22 C         139.5203  139.3357  162.8511 C.ar    1  UNL1        0.0985
     23 N         139.6443  140.7856  163.2149 N.ar    1  UNL1       -0.2457
     24 C         137.9992  137.8492  166.2018 C.3     1  UNL1        0.4187
     25 F         137.4509  136.8704  167.1973 F       1  UNL1       -0.1659
     26 F         138.7315  136.7369  165.5114 F       1  UNL1       -0.1659
     27 F         137.2671  138.9616  166.8921 F       1  UNL1       -0.1659
@<TRIPOS>BOND
     1     1     2    1
     2     2     3    1
     3     3     4    1
     4     4     5    1
     5     5    15    1
     6    15    16    1
     7    16    17    1
     8    17    18    1
     9    18    19   ar
    10    19    20   ar
    11    20    24    1
    12    24    25    1
    13    24    26    1
    14    24    27    1
    15    20    21   ar
    16    21    22   ar
    17    22    23   ar
    18     5     8    1
    19     8     9   ar
    20     9    10   ar
    21    10    11   ar
    22    11    12    1
    23    11    13   ar
    24    13    14   ar
    25     5     6    1
    26     6     7    1
    27     7     2    1
    28    23    18   ar
    29    14     8   ar
@<TRIPOS>MOLECULE
*****
 27 29 0 0 0
SMALL
GASTEIGER

@<TRIPOS>ATOM
      1 C         144.1267  144.6811  162.8250 C.3     1  UNL1        0.0896
      2 N         143.7962  143.4896  163.6743 N.3     1  UNL1       -0.2715
      3 C         142.9056  143.6455  164.8711 C.3     1  UNL1        0.0725
      4 C         142.5751  142.4541  165.7204 C.3     1  UNL1        0.0238
      5 C         143.1352  141.1067  165.3727 C.3     1  UNL1        0.0489
      6 C         144.0258  140.9508  164.1759 C.3     1  UNL1        0.0238
      7 C         144.3563  142.1423  163.3266 C.3     1  UNL1        0.0725
      8 C         142.3437  140.7519  166.5965 C.ar    1  UNL1       -0.0202
      9 C         142.8935  139.7680  167.5862 C.ar    1  UNL1       -0.0019
     10 C         142.1021  139.4132  168.8100 C.ar    1  UNL1        0.0293
     11 C         140.7606  140.0422  169.0440 C.ar    1  UNL1        0.1401
     12 F         139.9690  139.6874  170.2677 F       1  UNL1       -0.2042
     13 C         140.2106  141.0261  168.0543 C.ar    1  UNL1        0.0293
     14 C         141.0022  141.3810  166.8305 C.ar    1  UNL1       -0.0019
     15 C         143.4204  139.6361  165.4501 C.3     1  UNL1        0.1467
     16 O         143.3734  138.7966  164.2079 O.3     1  UNL1       -0.3470
     17 C         142.1102  138.0785  163.8354 C.3     1  UNL1        0.1875
     18 C         140.7784  138.6720  164.1874 C.ar    1  UNL1        0.0888
     19 C         139.9299  138.0348  165.2476 C.ar    1  UNL1        0.0211
     20 C         138.5981  138.6284  165.5996 C.ar    1  UNL1        0.0742
     21 C         138.1147  139.8591  164.8914 C.ar    1  UNL1        0.0245
     22 C         138.9632  140.4964  163.8312 C.ar    1  UNL1        0.0985
     23 N         140.2950  139.9029  163.4792 N.ar    1  UNL1       -0.2457
     24 C         137.7495  137.9912  166.6598 C.3     1  UNL1        0.4187
     25 F         136.9010  137.3539  167.7199 F       1  UNL1       -0.1659
     26 F         137.9998  136.6436  166.0502 F       1  UNL1       -0.1659
     27 F         137.4992  139.3387  167.2693 F       1  UNL1       -0.1659
@<TRIPOS>BOND
     1     1     2    1
     2     2     3    1
     3     3     4    1
     4     4     5    1
     5     5    15    1
     6    15    16    1
     7    16    17    1
     8    17    18    1
     9    18    19   ar
    10    19    20   ar
    11    20    24    1
    12    24    25    1
    13    24    26    1
    14    24    27    1
    15    20    21   ar
    16    21    22   ar
    17    22    23   ar
    18     5     8    1
    19     8     9   ar
    20     9    10   ar
    21    10    11   ar
    22    11    12    1
    23    11    13   ar
    24    13    14   ar
    25     5     6    1
    26     6     7    1
    27     7     2    1
    28    23    18   ar
    29    14     8   ar
@<TRIPOS>MOLECULE
*****
 27 29 0 0 0
SMALL
GASTEIGER

@<TRIPOS>ATOM
      1 C         144.0846  138.7905  161.0875 C.3     1  UNL1        0.0896
      2 N         143.8858  139.7554  162.2187 N.3     1  UNL1       -0.2715
      3 C         142.7829  139.5315  163.2103 C.3     1  UNL1        0.0725
      4 C         142.5841  140.4963  164.3415 C.3     1  UNL1        0.0238
      5 C         143.4881  141.6850  164.4810 C.3     1  UNL1        0.0489
      6 C         144.5910  141.9090  163.4894 C.3     1  UNL1        0.0238
      7 C         144.7898  140.9441  162.3582 C.3     1  UNL1        0.0725
      8 C         142.5910  141.8999  165.6638 C.ar    1  UNL1       -0.0202
      9 C         141.1021  141.8211  165.5000 C.ar    1  UNL1       -0.0019
     10 C         140.2049  142.0359  166.6827 C.ar    1  UNL1        0.0293
     11 C         140.7967  142.3296  168.0294 C.ar    1  UNL1        0.1401
     12 F         139.8996  142.5444  169.2122 F       1  UNL1       -0.2042
     13 C         142.2856  142.4084  168.1933 C.ar    1  UNL1        0.0293
     14 C         143.1828  142.1935  167.0105 C.ar    1  UNL1       -0.0019
     15 C         144.0806  142.9485  165.0313 C.3     1  UNL1        0.1467
     16 O         144.4809  144.0559  164.1021 O.3     1  UNL1       -0.3470
     17 C         143.5480  145.2051  163.8592 C.3     1  UNL1        0.1875
     18 C         142.2129  144.9649  163.2192 C.ar    1  UNL1        0.0888
     19 C         140.9790  144.8785  164.0678 C.ar    1  UNL1        0.0211
     20 C         139.6439  144.6383  163.4276 C.ar    1  UNL1        0.0742
     21 C         139.5426  144.4845  161.9390 C.ar    1  UNL1        0.0245
     22 C         140.7765  144.5709  161.0904 C.ar    1  UNL1        0.0985
     23 N         142.1117  144.8111  161.7305 N.ar    1  UNL1       -0.2457
     24 C         138.4099  144.5519  164.2762 C.3     1  UNL1        0.4187
     25 F         137.1760  144.4655  165.1247 F       1  UNL1       -0.1659
     26 F         137.6160  144.1233  163.0779 F       1  UNL1       -0.1659
     27 F         139.2040  144.9806  165.4744 F       1  UNL1       -0.1659
@<TRIPOS>BOND
     1     1     2    1
     2     2     3    1
     3     3     4    1
     4     4     5    1
     5     5    15    1
     6    15    16    1
     7    16    17    1
     8    17    18    1
     9    18    19   ar
    10    19    20   ar
    11    20    24    1
    12    24    25    1
    13    24    26    1
    14    24    27    1
    15    20    21   ar
    16    21    22   ar
    17    22    23   ar
    18     5     8    1
    19     8     9   ar
    20     9    10   ar
    21    10    11   ar
    22    11    12    1
    23    11    13   ar
    24    13    14   ar
    25     5     6    1
    26     6     7    1
    27     7     2    1
    28    23    18   ar
    29    14     8   ar
