@<TRIPOS>MOLECULE
*****
 27 30 0 0 0
SMALL
GASTEIGER

@<TRIPOS>ATOM
      1 C         143.9978  137.9213  166.4346 C.3     1  UNL1        0.0722
      2 C         142.7167  138.5467  165.9681 C.ar    1  UNL1        0.1249
      3 N         141.9942  138.2297  164.6924 N.ar    1  UNL1       -0.2305
      4 C         140.7641  139.0860  164.6312 C.ar    1  UNL1        0.1017
      5 C         139.6735  139.2045  163.6083 C.ar    1  UNL1        0.0578
      6 C         138.5452  140.1692  163.8232 C.ar    1  UNL1        0.1484
      7 C         138.5075  141.0154  165.0612 C.ar    1  UNL1        0.0388
      8 C         139.5981  140.8970  166.0841 C.ar    1  UNL1        0.0222
      9 C         140.7264  139.9322  165.8691 C.ar    1  UNL1        0.0833
     10 N         141.9332  139.5989  166.6953 N.ar    1  UNL1       -0.2882
     11 C         142.2932  140.2105  168.0168 C.ar    1  UNL1        0.0953
     12 C         142.0188  139.6172  169.3669 C.ar    1  UNL1        0.0250
     13 C         142.5469  140.5628  170.4048 C.ar    1  UNL1        0.0131
     14 C         143.1476  141.7405  169.6961 C.ar    1  UNL1        0.0841
     15 S         142.9908  141.5227  168.2203 S.2     1  UNL1       -0.0648
     16 C         143.7919  142.9274  170.3487 C.2     1  UNL1        0.2519
     17 O         142.9443  143.9624  171.0272 O.2     1  UNL1       -0.2696
     18 N         145.2840  143.0795  170.3228 N.am    1  UNL1       -0.3021
     19 H         145.8404  142.4002  169.8776 H       1  UNL1        0.1497
     20 C         145.9283  144.2665  170.9754 C.3     1  UNL1        0.0720
     21 C         145.8098  145.5930  171.6655 C.3     1  UNL1        0.0213
     22 C         147.1629  144.9959  171.4156 C.3     1  UNL1        0.0213
     23 O         137.4545  140.2877  162.8002 O.3     1  UNL1       -0.4044
     24 C         137.7898  140.6587  161.3860 C.3     1  UNL1        0.5753
     25 F         138.1251  141.0297  159.9718 F       1  UNL1       -0.1328
     26 F         137.1394  139.3971  160.9009 F       1  UNL1       -0.1328
     27 F         138.4402  141.9203  161.8712 F       1  UNL1       -0.1328
@<TRIPOS>BOND
     1     1     2    1
     2     2     3   ar
     3     3     4   ar
     4     4     5   ar
     5     5     6   ar
     6     6    23    1
     7    23    24    1
     8    24    25    1
     9    24    26    1
    10    24    27    1
    11     6     7   ar
    12     7     8   ar
    13     8     9   ar
    14     9    10   ar
    15    10    11    1
    16    11    12   ar
    17    12    13   ar
    18    13    14   ar
    19    14    16    1
    20    16    17    2
    21    16    18   am
    22    18    20    1
    23    20    21    1
    24    21    22    1
    25    14    15   ar
    26    10     2   ar
    27    15    11   ar
    28     9     4   ar
    29    22    20    1
    30    18    19    1
@<TRIPOS>MOLECULE
*****
 27 30 0 0 0
SMALL
GASTEIGER

@<TRIPOS>ATOM
      1 C         137.8304  140.1923  162.9365 C.3     1  UNL1        0.0722
      2 C         138.4666  140.5249  164.2536 C.ar    1  UNL1        0.1249
      3 N         138.4914  139.6449  165.4680 N.ar    1  UNL1       -0.2305
      4 C         139.2299  140.3720  166.5525 C.ar    1  UNL1        0.1017
      5 C         139.5650  139.9953  167.9651 C.ar    1  UNL1        0.0578
      6 C         140.3318  140.9480  168.8336 C.ar    1  UNL1        0.1484
      7 C         140.7635  142.2775  168.2893 C.ar    1  UNL1        0.0388
      8 C         140.4283  142.6542  166.8766 C.ar    1  UNL1        0.0222
      9 C         139.6615  141.7015  166.0082 C.ar    1  UNL1        0.0833
     10 N         139.1898  141.7960  164.5874 N.ar    1  UNL1       -0.2882
     11 C         139.4037  142.9576  163.6629 C.ar    1  UNL1        0.0953
     12 C         138.8292  144.3333  163.8281 C.ar    1  UNL1        0.0250
     13 C         139.3001  145.1734  162.6781 C.ar    1  UNL1        0.0131
     14 C         140.1657  144.3170  161.8021 C.ar    1  UNL1        0.0841
     15 S         140.2297  142.9475  162.4109 S.2     1  UNL1       -0.0648
     16 C         140.8475  144.7533  160.5394 C.2     1  UNL1        0.2519
     17 O         142.3427  144.6938  160.4352 O.2     1  UNL1       -0.2696
     18 N         140.0342  145.2491  159.3807 N.am    1  UNL1       -0.3021
     19 H         139.0528  145.2882  159.4490 H       1  UNL1        0.1497
     20 C         140.7160  145.6855  158.1179 C.3     1  UNL1        0.0720
     21 C         141.9706  145.8764  157.3182 C.3     1  UNL1        0.0213
     22 C         140.6423  146.2504  156.7303 C.3     1  UNL1        0.0213
     23 O         140.6670  140.5713  170.2463 O.3     1  UNL1       -0.4044
     24 C         142.0808  140.2342  170.6173 C.3     1  UNL1        0.5753
     25 F         143.4945  139.8970  170.9883 F       1  UNL1       -0.1328
     26 F         142.2578  141.6084  171.1918 F       1  UNL1       -0.1328
     27 F         141.9038  138.8599  170.0428 F       1  UNL1       -0.1328
@<TRIPOS>BOND
     1     1     2    1
     2     2     3   ar
     3     3     4   ar
     4     4     5   ar
     5     5     6   ar
     6     6    23    1
     7    23    24    1
     8    24    25    1
     9    24    26    1
    10    24    27    1
    11     6     7   ar
    12     7     8   ar
    13     8     9   ar
    14     9    10   ar
    15    10    11    1
    16    11    12   ar
    17    12    13   ar
    18    13    14   ar
    19    14    16    1
    20    16    17    2
    21    16    18   am
    22    18    20    1
    23    20    21    1
    24    21    22    1
    25    14    15   ar
    26    10     2   ar
    27    15    11   ar
    28     9     4   ar
    29    22    20    1
    30    18    19    1
@<TRIPOS>MOLECULE
*****
 27 30 0 0 0
SMALL
GASTEIGER

@<TRIPOS>ATOM
      1 C         138.9106  139.5100  167.7249 C.3     1  UNL1        0.0722
      2 C         139.9170  139.5517  166.6134 C.ar    1  UNL1        0.1249
      3 N         139.6635  139.1883  165.1803 N.ar    1  UNL1       -0.2305
      4 C         140.9434  139.3762  164.4210 C.ar    1  UNL1        0.1017
      5 C         141.2927  139.1726  162.9766 C.ar    1  UNL1        0.0578
      6 C         142.6865  139.4486  162.4959 C.ar    1  UNL1        0.1484
      7 C         143.7311  139.9280  163.4597 C.ar    1  UNL1        0.0388
      8 C         143.3818  140.1316  164.9042 C.ar    1  UNL1        0.0222
      9 C         141.9880  139.8557  165.3849 C.ar    1  UNL1        0.0833
     10 N         141.3536  139.9642  166.7398 N.ar    1  UNL1       -0.2882
     11 C         142.0361  140.4073  167.9999 C.ar    1  UNL1        0.0953
     12 C         142.2999  139.5555  169.2060 C.ar    1  UNL1        0.0250
     13 C         143.0014  140.4017  170.2267 C.ar    1  UNL1        0.0131
     14 C         143.1712  141.7766  169.6514 C.ar    1  UNL1        0.0841
     15 S         142.5746  141.7799  168.2751 S.2     1  UNL1       -0.0648
     16 C         143.8231  142.9431  170.3326 C.2     1  UNL1        0.2519
     17 O         142.9831  143.9585  171.0491 O.2     1  UNL1       -0.2696
     18 N         145.3151  143.0943  170.2974 N.am    1  UNL1       -0.3021
     19 H         145.8664  142.4279  169.8271 H       1  UNL1        0.1497
     20 C         145.9669  144.2609  170.9786 C.3     1  UNL1        0.0720
     21 C         147.2052  144.9635  171.4510 C.3     1  UNL1        0.0213
     22 C         145.8577  145.5789  171.6863 C.3     1  UNL1        0.0213
     23 O         143.0358  139.2450  161.0514 O.3     1  UNL1       -0.4044
     24 C         143.1474  137.8564  160.4953 C.3     1  UNL1        0.5753
     25 F         143.2589  136.4677  159.9391 F       1  UNL1       -0.1328
     26 F         142.1163  138.1890  159.4578 F       1  UNL1       -0.1328
     27 F         144.1784  137.5237  161.5327 F       1  UNL1       -0.1328
@<TRIPOS>BOND
     1     1     2    1
     2     2     3   ar
     3     3     4   ar
     4     4     5   ar
     5     5     6   ar
     6     6    23    1
     7    23    24    1
     8    24    25    1
     9    24    26    1
    10    24    27    1
    11     6     7   ar
    12     7     8   ar
    13     8     9   ar
    14     9    10   ar
    15    10    11    1
    16    11    12   ar
    17    12    13   ar
    18    13    14   ar
    19    14    16    1
    20    16    17    2
    21    16    18   am
    22    18    20    1
    23    20    21    1
    24    21    22    1
    25    14    15   ar
    26    10     2   ar
    27    15    11   ar
    28     9     4   ar
    29    22    20    1
    30    18    19    1
@<TRIPOS>MOLECULE
*****
 27 30 0 0 0
SMALL
GASTEIGER

@<TRIPOS>ATOM
      1 C         144.5397  143.6024  162.3185 C.3     1  UNL1        0.0722
      2 C         143.6101  143.3656  163.4717 C.ar    1  UNL1        0.1249
      3 N         143.9666  142.7050  164.7703 N.ar    1  UNL1       -0.2305
      4 C         142.7377  142.6790  165.6300 C.ar    1  UNL1        0.1017
      5 C         142.4907  142.1517  167.0123 C.ar    1  UNL1        0.0578
      6 C         141.1277  142.2689  167.6273 C.ar    1  UNL1        0.1484
      7 C         140.0115  142.9135  166.8600 C.ar    1  UNL1        0.0388
      8 C         140.2585  143.4408  165.4776 C.ar    1  UNL1        0.0222
      9 C         141.6216  143.3236  164.8626 C.ar    1  UNL1        0.0833
     10 N         142.1608  143.7479  163.5288 N.ar    1  UNL1       -0.2882
     11 C         141.3865  144.4341  162.4426 C.ar    1  UNL1        0.0953
     12 C         140.5348  145.6581  162.6055 C.ar    1  UNL1        0.0250
     13 C         139.9499  145.9972  161.2665 C.ar    1  UNL1        0.0131
     14 C         140.4401  144.9829  160.2761 C.ar    1  UNL1        0.0841
     15 S         141.3280  144.0169  161.0031 S.2     1  UNL1       -0.0648
     16 C         140.1019  144.9418  158.8154 C.2     1  UNL1        0.2519
     17 O         139.6820  143.6501  158.1787 O.2     1  UNL1       -0.2696
     18 N         140.1836  146.1924  157.9911 N.am    1  UNL1       -0.3021
     19 H         140.4592  147.0402  158.4089 H       1  UNL1        0.1497
     20 C         139.8453  146.1513  156.5304 C.3     1  UNL1        0.0720
     21 C         139.3307  145.4029  155.3366 C.3     1  UNL1        0.0213
     22 C         139.7741  146.8286  155.1939 C.3     1  UNL1        0.0213
     23 O         140.8806  141.7416  169.0097 O.3     1  UNL1       -0.4044
     24 C         140.1099  142.5639  169.9995 C.3     1  UNL1        0.5753
     25 F         139.3391  143.3863  170.9892 F       1  UNL1       -0.1328
     26 F         139.0591  141.4956  170.0688 F       1  UNL1       -0.1328
     27 F         141.1606  143.6322  169.9302 F       1  UNL1       -0.1328
@<TRIPOS>BOND
     1     1     2    1
     2     2     3   ar
     3     3     4   ar
     4     4     5   ar
     5     5     6   ar
     6     6    23    1
     7    23    24    1
     8    24    25    1
     9    24    26    1
    10    24    27    1
    11     6     7   ar
    12     7     8   ar
    13     8     9   ar
    14     9    10   ar
    15    10    11    1
    16    11    12   ar
    17    12    13   ar
    18    13    14   ar
    19    14    16    1
    20    16    17    2
    21    16    18   am
    22    18    20    1
    23    20    21    1
    24    21    22    1
    25    14    15   ar
    26    10     2   ar
    27    15    11   ar
    28     9     4   ar
    29    22    20    1
    30    18    19    1
@<TRIPOS>MOLECULE
*****
 27 30 0 0 0
SMALL
GASTEIGER

@<TRIPOS>ATOM
      1 C         144.6654  143.1846  162.4239 C.3     1  UNL1        0.0722
      2 C         143.7509  143.0325  163.6031 C.ar    1  UNL1        0.1249
      3 N         144.1293  142.4856  164.9476 N.ar    1  UNL1       -0.2305
      4 C         142.9097  142.5157  165.8203 C.ar    1  UNL1        0.1017
      5 C         142.6838  142.1012  167.2441 C.ar    1  UNL1        0.0578
      6 C         141.3258  142.2522  167.8627 C.ar    1  UNL1        0.1484
      7 C         140.1935  142.8178  167.0576 C.ar    1  UNL1        0.0388
      8 C         140.4194  143.2323  165.6339 C.ar    1  UNL1        0.0222
      9 C         141.7774  143.0812  165.0152 C.ar    1  UNL1        0.0833
     10 N         142.2973  143.4006  163.6449 N.ar    1  UNL1       -0.2882
     11 C         141.5031  143.9855  162.5148 C.ar    1  UNL1        0.0953
     12 C         140.9212  145.3672  162.4687 C.ar    1  UNL1        0.0250
     13 C         140.2097  145.5271  161.1579 C.ar    1  UNL1        0.0131
     14 C         140.3520  144.2441  160.3938 C.ar    1  UNL1        0.0841
     15 S         141.1513  143.2914  161.2325 S.2     1  UNL1       -0.0648
     16 C         139.7931  143.9632  159.0305 C.2     1  UNL1        0.2519
     17 O         140.3284  144.6943  157.8351 O.2     1  UNL1       -0.2696
     18 N         138.6988  142.9511  158.8625 N.am    1  UNL1       -0.3021
     19 H         138.3474  142.4712  159.6470 H       1  UNL1        0.1497
     20 C         138.1399  142.6702  157.4991 C.3     1  UNL1        0.0720
     21 C         137.1146  142.9324  156.4362 C.3     1  UNL1        0.0213
     22 C         138.1972  141.9213  156.2007 C.3     1  UNL1        0.0213
     23 O         141.0999  141.8377  169.2866 O.3     1  UNL1       -0.4044
     24 C         139.7716  141.2792  169.7034 C.3     1  UNL1        0.5753
     25 F         138.4433  140.7208  170.1202 F       1  UNL1       -0.1328
     26 F         139.4137  142.5957  170.3269 F       1  UNL1       -0.1328
     27 F         140.1294  139.9627  169.0799 F       1  UNL1       -0.1328
@<TRIPOS>BOND
     1     1     2    1
     2     2     3   ar
     3     3     4   ar
     4     4     5   ar
     5     5     6   ar
     6     6    23    1
     7    23    24    1
     8    24    25    1
     9    24    26    1
    10    24    27    1
    11     6     7   ar
    12     7     8   ar
    13     8     9   ar
    14     9    10   ar
    15    10    11    1
    16    11    12   ar
    17    12    13   ar
    18    13    14   ar
    19    14    16    1
    20    16    17    2
    21    16    18   am
    22    18    20    1
    23    20    21    1
    24    21    22    1
    25    14    15   ar
    26    10     2   ar
    27    15    11   ar
    28     9     4   ar
    29    22    20    1
    30    18    19    1
@<TRIPOS>MOLECULE
*****
 27 30 0 0 0
SMALL
GASTEIGER

@<TRIPOS>ATOM
      1 C         138.9951  137.4600  163.8715 C.3     1  UNL1        0.0722
      2 C         140.0797  137.9180  162.9419 C.ar    1  UNL1        0.1249
      3 N         140.0673  137.8001  161.4466 N.ar    1  UNL1       -0.2305
      4 C         141.3470  138.3835  160.9250 C.ar    1  UNL1        0.1017
      5 C         141.8846  138.5409  159.5336 C.ar    1  UNL1        0.0578
      6 C         143.2254  139.1768  159.3151 C.ar    1  UNL1        0.1484
      7 C         144.0286  139.6553  160.4880 C.ar    1  UNL1        0.0388
      8 C         143.4911  139.4979  161.8795 C.ar    1  UNL1        0.0222
      9 C         142.1502  138.8620  162.0980 C.ar    1  UNL1        0.0833
     10 N         141.3670  138.5743  163.3445 N.ar    1  UNL1       -0.2882
     11 C         141.7958  138.8879  164.7473 C.ar    1  UNL1        0.0953
     12 C         142.9457  138.2611  165.4786 C.ar    1  UNL1        0.0250
     13 C         143.0106  138.8691  166.8483 C.ar    1  UNL1        0.0131
     14 C         141.9009  139.8717  166.9635 C.ar    1  UNL1        0.0841
     15 S         141.1502  139.8833  165.6650 S.2     1  UNL1       -0.0648
     16 C         141.5956  140.7147  168.1660 C.2     1  UNL1        0.2519
     17 O         142.1859  140.3615  169.4991 O.2     1  UNL1       -0.2696
     18 N         140.6999  141.9108  168.0357 N.am    1  UNL1       -0.3021
     19 H         140.3124  142.1426  167.1608 H       1  UNL1        0.1497
     20 C         140.3946  142.7538  169.2382 C.3     1  UNL1        0.0720
     21 C         140.4699  144.0687  169.9560 C.3     1  UNL1        0.0213
     22 C         139.7904  142.8988  170.6035 C.3     1  UNL1        0.0213
     23 O         143.7630  139.3342  157.9235 O.3     1  UNL1       -0.4044
     24 C         143.9732  140.7047  157.3513 C.3     1  UNL1        0.5753
     25 F         144.1835  142.0753  156.7791 F       1  UNL1       -0.1328
     26 F         145.3519  140.3097  156.9117 F       1  UNL1       -0.1328
     27 F         142.5946  141.0997  157.7910 F       1  UNL1       -0.1328
@<TRIPOS>BOND
     1     1     2    1
     2     2     3   ar
     3     3     4   ar
     4     4     5   ar
     5     5     6   ar
     6     6    23    1
     7    23    24    1
     8    24    25    1
     9    24    26    1
    10    24    27    1
    11     6     7   ar
    12     7     8   ar
    13     8     9   ar
    14     9    10   ar
    15    10    11    1
    16    11    12   ar
    17    12    13   ar
    18    13    14   ar
    19    14    16    1
    20    16    17    2
    21    16    18   am
    22    18    20    1
    23    20    21    1
    24    21    22    1
    25    14    15   ar
    26    10     2   ar
    27    15    11   ar
    28     9     4   ar
    29    22    20    1
    30    18    19    1
@<TRIPOS>MOLECULE
*****
 27 30 0 0 0
SMALL
GASTEIGER

@<TRIPOS>ATOM
      1 C         142.8614  138.0159  162.4551 C.3     1  UNL1        0.0722
      2 C         142.4026  138.6930  163.7125 C.ar    1  UNL1        0.1249
      3 N         143.1845  138.8088  164.9873 N.ar    1  UNL1       -0.2305
      4 C         142.3464  139.5605  165.9785 C.ar    1  UNL1        0.1017
      5 C         142.5990  139.9725  167.3985 C.ar    1  UNL1        0.0578
      6 C         141.5517  140.7333  168.1563 C.ar    1  UNL1        0.1484
      7 C         140.2518  141.0821  167.4940 C.ar    1  UNL1        0.0388
      8 C         139.9992  140.6702  166.0741 C.ar    1  UNL1        0.0222
      9 C         141.0465  139.9094  165.3163 C.ar    1  UNL1        0.0833
     10 N         141.0812  139.3732  163.9158 N.ar    1  UNL1       -0.2882
     11 C         139.9867  139.4957  162.8975 C.ar    1  UNL1        0.0953
     12 C         138.7645  138.6308  162.8084 C.ar    1  UNL1        0.0250
     13 C         137.9446  139.1052  161.6453 C.ar    1  UNL1        0.0131
     14 C         138.6602  140.2634  161.0155 C.ar    1  UNL1        0.0841
     15 S         139.9222  140.5047  161.7894 S.2     1  UNL1       -0.0648
     16 C         138.1953  141.0432  159.8215 C.2     1  UNL1        0.2519
     17 O         138.1724  142.5424  159.8673 O.2     1  UNL1       -0.2696
     18 N         137.7533  140.3240  158.5817 N.am    1  UNL1       -0.3021
     19 H         137.7682  139.3401  158.5516 H       1  UNL1        0.1497
     20 C         137.2884  141.1039  157.3877 C.3     1  UNL1        0.0720
     21 C         137.4616  142.2522  156.4383 C.3     1  UNL1        0.0213
     22 C         136.3099  141.3063  156.2689 C.3     1  UNL1        0.0213
     23 O         141.8043  141.1453  169.5763 O.3     1  UNL1       -0.4044
     24 C         142.9992  141.9878  169.9116 C.3     1  UNL1        0.5753
     25 F         144.1941  142.8303  170.2469 F       1  UNL1       -0.1328
     26 F         143.7434  140.7597  170.3451 F       1  UNL1       -0.1328
     27 F         142.2549  143.2159  169.4782 F       1  UNL1       -0.1328
@<TRIPOS>BOND
     1     1     2    1
     2     2     3   ar
     3     3     4   ar
     4     4     5   ar
     5     5     6   ar
     6     6    23    1
     7    23    24    1
     8    24    25    1
     9    24    26    1
    10    24    27    1
    11     6     7   ar
    12     7     8   ar
    13     8     9   ar
    14     9    10   ar
    15    10    11    1
    16    11    12   ar
    17    12    13   ar
    18    13    14   ar
    19    14    16    1
    20    16    17    2
    21    16    18   am
    22    18    20    1
    23    20    21    1
    24    21    22    1
    25    14    15   ar
    26    10     2   ar
    27    15    11   ar
    28     9     4   ar
    29    22    20    1
    30    18    19    1
@<TRIPOS>MOLECULE
*****
 27 30 0 0 0
SMALL
GASTEIGER

@<TRIPOS>ATOM
      1 C         138.5115  138.4998  162.8211 C.3     1  UNL1        0.0722
      2 C         139.2478  139.0763  163.9939 C.ar    1  UNL1        0.1249
      3 N         138.6420  139.4700  165.3085 N.ar    1  UNL1       -0.2305
      4 C         139.7391  139.9973  166.1851 C.ar    1  UNL1        0.1017
      5 C         139.7348  140.5304  167.5871 C.ar    1  UNL1        0.0578
      6 C         141.0144  140.9958  168.2164 C.ar    1  UNL1        0.1484
      7 C         142.2983  140.9280  167.4436 C.ar    1  UNL1        0.0388
      8 C         142.3025  140.3949  166.0416 C.ar    1  UNL1        0.0222
      9 C         141.0229  139.9296  165.4123 C.ar    1  UNL1        0.0833
     10 N         140.7193  139.3603  164.0581 N.ar    1  UNL1       -0.2882
     11 C         141.7127  139.1178  162.9608 C.ar    1  UNL1        0.0953
     12 C         142.6877  137.9800  162.8898 C.ar    1  UNL1        0.0250
     13 C         143.4832  138.1294  161.6270 C.ar    1  UNL1        0.0131
     14 C         142.9999  139.3594  160.9174 C.ar    1  UNL1        0.0841
     15 S         141.9057  139.9702  161.7418 S.2     1  UNL1       -0.0648
     16 C         143.5195  139.8861  159.6126 C.2     1  UNL1        0.2519
     17 O         143.5490  138.9985  158.4038 O.2     1  UNL1       -0.2696
     18 N         144.0097  141.3005  159.5166 N.am    1  UNL1       -0.3021
     19 H         143.9904  141.8831  160.3099 H       1  UNL1        0.1497
     20 C         144.5294  141.8272  158.2117 C.3     1  UNL1        0.0720
     21 C         144.3014  142.1915  156.7747 C.3     1  UNL1        0.0213
     22 C         145.6575  142.3752  157.3889 C.3     1  UNL1        0.0213
     23 O         141.0102  141.5289  169.6185 O.3     1  UNL1       -0.4044
     24 C         140.7139  142.9779  169.8690 C.3     1  UNL1        0.5753
     25 F         140.4175  144.4268  170.1195 F       1  UNL1       -0.1328
     26 F         142.1065  143.3365  169.4422 F       1  UNL1       -0.1328
     27 F         139.3213  142.6193  170.2957 F       1  UNL1       -0.1328
@<TRIPOS>BOND
     1     1     2    1
     2     2     3   ar
     3     3     4   ar
     4     4     5   ar
     5     5     6   ar
     6     6    23    1
     7    23    24    1
     8    24    25    1
     9    24    26    1
    10    24    27    1
    11     6     7   ar
    12     7     8   ar
    13     8     9   ar
    14     9    10   ar
    15    10    11    1
    16    11    12   ar
    17    12    13   ar
    18    13    14   ar
    19    14    16    1
    20    16    17    2
    21    16    18   am
    22    18    20    1
    23    20    21    1
    24    21    22    1
    25    14    15   ar
    26    10     2   ar
    27    15    11   ar
    28     9     4   ar
    29    22    20    1
    30    18    19    1
@<TRIPOS>MOLECULE
*****
 27 30 0 0 0
SMALL
GASTEIGER

@<TRIPOS>ATOM
      1 C         141.2869  142.8325  162.6220 C.3     1  UNL1        0.0722
      2 C         141.7110  141.8999  163.7176 C.ar    1  UNL1        0.1249
      3 N         141.5408  142.1334  165.1894 N.ar    1  UNL1       -0.2305
      4 C         142.1043  140.9478  165.9152 C.ar    1  UNL1        0.1017
      5 C         142.2123  140.6233  167.3757 C.ar    1  UNL1        0.0578
      6 C         142.8388  139.3325  167.8128 C.ar    1  UNL1        0.1484
      7 C         143.3574  138.3661  166.7894 C.ar    1  UNL1        0.0388
      8 C         143.2495  138.6906  165.3290 C.ar    1  UNL1        0.0222
      9 C         142.6229  139.9815  164.8919 C.ar    1  UNL1        0.0833
     10 N         142.3798  140.5699  163.5337 N.ar    1  UNL1       -0.2882
     11 C         142.7420  139.9390  162.2218 C.ar    1  UNL1        0.0953
     12 C         144.1320  139.7285  161.6987 C.ar    1  UNL1        0.0250
     13 C         144.0268  139.0673  160.3564 C.ar    1  UNL1        0.0131
     14 C         142.5719  138.8690  160.0500 C.ar    1  UNL1        0.0841
     15 S         141.7779  139.4078  161.2029 S.2     1  UNL1       -0.0648
     16 C         142.0097  138.2422  158.8087 C.2     1  UNL1        0.2519
     17 O         140.5309  138.2691  158.5585 O.2     1  UNL1       -0.2696
     18 N         142.9262  137.5884  157.8175 N.am    1  UNL1       -0.3021
     19 H         143.8968  137.5707  157.9816 H       1  UNL1        0.1497
     20 C         142.3640  136.9615  156.5761 C.3     1  UNL1        0.0720
     21 C         142.1517  136.9836  155.0914 C.3     1  UNL1        0.0213
     22 C         141.6026  135.8536  155.9108 C.3     1  UNL1        0.0213
     23 O         142.9468  139.0079  169.2733 O.3     1  UNL1       -0.4044
     24 C         142.3869  139.9528  170.2949 C.3     1  UNL1        0.5753
     25 F         141.8269  140.8976  171.3166 F       1  UNL1       -0.1328
     26 F         143.6911  140.6931  170.3251 F       1  UNL1       -0.1328
     27 F         141.0827  139.2124  170.2648 F       1  UNL1       -0.1328
@<TRIPOS>BOND
     1     1     2    1
     2     2     3   ar
     3     3     4   ar
     4     4     5   ar
     5     5     6   ar
     6     6    23    1
     7    23    24    1
     8    24    25    1
     9    24    26    1
    10    24    27    1
    11     6     7   ar
    12     7     8   ar
    13     8     9   ar
    14     9    10   ar
    15    10    11    1
    16    11    12   ar
    17    12    13   ar
    18    13    14   ar
    19    14    16    1
    20    16    17    2
    21    16    18   am
    22    18    20    1
    23    20    21    1
    24    21    22    1
    25    14    15   ar
    26    10     2   ar
    27    15    11   ar
    28     9     4   ar
    29    22    20    1
    30    18    19    1
