@<TRIPOS>MOLECULE
*****
 32 36 0 0 0
SMALL
GASTEIGER

@<TRIPOS>ATOM
      1 C         138.4770  139.4934  164.5984 C.ar    1  UNL1        0.1564
      2 C         138.8741  138.0628  164.3848 C.ar    1  UNL1        0.0385
      3 C         139.1863  137.5694  163.0031 C.ar    1  UNL1        0.0033
      4 C         139.1014  138.5066  161.8350 C.ar    1  UNL1        0.0048
      5 C         138.7044  139.9372  162.0487 C.ar    1  UNL1        0.0567
      6 C         138.3921  140.4306  163.4304 C.ar    1  UNL1        0.1209
      7 N         137.9951  141.8613  163.6439 N.ar    1  UNL1       -0.2108
      8 C         137.9102  142.7985  162.4759 C.ar    1  UNL1        0.2163
      9 N         137.5131  144.2292  162.6895 N.pl3   1  UNL1       -0.3274
     10 N         138.2224  142.3051  161.0942 N.ar    1  UNL1       -0.1813
     11 N         138.2246  142.9909  159.7601 N.ar    1  UNL1       -0.1451
     12 C         138.6230  141.9841  158.7221 C.ar    1  UNL1        0.1769
     13 N         138.8671  140.6761  159.4145 N.ar    1  UNL1       -0.2086
     14 C         138.6195  140.8745  160.8806 C.ar    1  UNL1        0.1695
     15 H         137.3082  144.5531  163.5963 H       1  UNL1        0.1452
     16 H         137.4574  144.8443  161.9228 H       1  UNL1        0.1452
     17 C         138.3891  139.0936  167.1640 C.3     1  UNL1        0.2525
     18 O         138.1648  139.9868  165.9801 O.3     1  UNL1       -0.4699
     19 C         138.7543  142.2403  157.2499 C.3     1  UNL1        0.1408
     20 N         138.8844  143.6457  156.7419 N.3     1  UNL1       -0.2644
     21 C         139.9755  144.5335  157.2629 C.3     1  UNL1        0.0942
     22 C         140.1056  145.9389  156.7549 C.3     1  UNL1        0.1095
     23 N         139.1446  146.4564  155.7259 N.pl3   1  UNL1       -0.2904
     24 C         138.0536  145.5686  155.2050 C.3     1  UNL1        0.1081
     25 C         137.9235  144.1633  155.7130 C.3     1  UNL1        0.0778
     26 C         136.8324  143.2755  155.1921 C.3     1  UNL1        0.0192
     27 C         139.2747  147.8618  155.2180 C.ar    1  UNL1        0.1318
     28 C         140.0808  148.1417  153.9843 C.ar    1  UNL1        0.0343
     29 C         140.2109  149.5471  153.4763 C.ar    1  UNL1        0.0045
     30 C         139.5350  150.6725  154.2020 C.ar    1  UNL1        0.0208
     31 C         138.7290  150.3925  155.4356 C.ar    1  UNL1        0.1003
     32 N         138.5988  148.9871  155.9436 N.ar    1  UNL1       -0.2292
@<TRIPOS>BOND
     1    17    18    1
     2    18     1    1
     3     1     2   ar
     4     2     3   ar
     5     3     4   ar
     6     4     5   ar
     7     5     6   ar
     8     6     7   ar
     9     7     8   ar
    10     8     9    1
    11     8    10   ar
    12    10    11   ar
    13    11    12   ar
    14    12    19    1
    15    19    20    1
    16    20    21    1
    17    21    22    1
    18    22    23    1
    19    23    27    1
    20    27    28   ar
    21    28    29   ar
    22    29    30   ar
    23    30    31   ar
    24    31    32   ar
    25    23    24    1
    26    24    25    1
    27    25    26    1
    28    12    13   ar
    29    13    14   ar
    30     6     1   ar
    31    14    10   ar
    32    14     5   ar
    33    25    20    1
    34    32    27   ar
    35     9    15    1
    36     9    16    1
@<TRIPOS>MOLECULE
*****
 32 36 0 0 0
SMALL
GASTEIGER

@<TRIPOS>ATOM
      1 C         141.1470  141.5232  169.0836 C.ar    1  UNL1        0.1564
      2 C         142.4122  142.2765  168.7975 C.ar    1  UNL1        0.0385
      3 C         143.0607  142.1687  167.4492 C.ar    1  UNL1        0.0033
      4 C         142.4440  141.3077  166.3870 C.ar    1  UNL1        0.0048
      5 C         141.1788  140.5545  166.6731 C.ar    1  UNL1        0.0567
      6 C         140.5303  140.6623  168.0213 C.ar    1  UNL1        0.1209
      7 N         139.2650  139.9090  168.3073 N.ar    1  UNL1       -0.2108
      8 C         138.6483  139.0480  167.2451 C.ar    1  UNL1        0.2163
      9 N         137.3831  138.2947  167.5311 N.pl3   1  UNL1       -0.3274
     10 N         139.2969  138.9403  165.8969 N.ar    1  UNL1       -0.1813
     11 N         138.9233  138.1756  164.6617 N.ar    1  UNL1       -0.1451
     12 C         139.9577  138.4562  163.6122 C.ar    1  UNL1        0.1769
     13 N         140.9705  139.3944  164.1989 N.ar    1  UNL1       -0.2086
     14 C         140.5621  139.6935  165.6108 C.ar    1  UNL1        0.1695
     15 H         136.9574  138.3655  168.4160 H       1  UNL1        0.1452
     16 H         136.9783  137.7297  166.8339 H       1  UNL1        0.1452
     17 C         139.6335  142.8129  170.7557 C.3     1  UNL1        0.2525
     18 O         140.4985  141.6310  170.4318 O.3     1  UNL1       -0.4699
     19 C         139.9761  137.8969  162.2205 C.3     1  UNL1        0.1408
     20 N         139.3617  138.6718  161.0926 N.3     1  UNL1       -0.2644
     21 C         137.9322  139.1179  161.1803 C.3     1  UNL1        0.0942
     22 C         137.3179  139.8928  160.0524 C.3     1  UNL1        0.1095
     23 N         138.1330  140.2216  158.8369 N.pl3   1  UNL1       -0.2904
     24 C         139.5625  139.7756  158.7493 C.3     1  UNL1        0.1081
     25 C         140.1768  139.0007  159.8771 C.3     1  UNL1        0.0778
     26 C         141.6062  138.5546  159.7895 C.3     1  UNL1        0.0192
     27 C         137.5187  140.9966  157.7090 C.ar    1  UNL1        0.1318
     28 C         138.0843  142.3302  157.3198 C.ar    1  UNL1        0.0343
     29 C         137.4700  143.1051  156.1919 C.ar    1  UNL1        0.0045
     30 C         136.2900  142.5464  155.4533 C.ar    1  UNL1        0.0208
     31 C         135.7244  141.2128  155.8426 C.ar    1  UNL1        0.1003
     32 N         136.3387  140.4379  156.9705 N.ar    1  UNL1       -0.2292
@<TRIPOS>BOND
     1    17    18    1
     2    18     1    1
     3     1     2   ar
     4     2     3   ar
     5     3     4   ar
     6     4     5   ar
     7     5     6   ar
     8     6     7   ar
     9     7     8   ar
    10     8     9    1
    11     8    10   ar
    12    10    11   ar
    13    11    12   ar
    14    12    19    1
    15    19    20    1
    16    20    21    1
    17    21    22    1
    18    22    23    1
    19    23    27    1
    20    27    28   ar
    21    28    29   ar
    22    29    30   ar
    23    30    31   ar
    24    31    32   ar
    25    23    24    1
    26    24    25    1
    27    25    26    1
    28    12    13   ar
    29    13    14   ar
    30     6     1   ar
    31    14    10   ar
    32    14     5   ar
    33    25    20    1
    34    32    27   ar
    35     9    15    1
    36     9    16    1
@<TRIPOS>MOLECULE
*****
 32 36 0 0 0
SMALL
GASTEIGER

@<TRIPOS>ATOM
      1 C         143.8692  131.6591  155.2495 C.ar    1  UNL1        0.1564
      2 C         144.8047  131.1714  156.3157 C.ar    1  UNL1        0.0385
      3 C         145.1026  132.0359  157.5048 C.ar    1  UNL1        0.0033
      4 C         144.4650  133.3880  157.6277 C.ar    1  UNL1        0.0048
      5 C         143.5295  133.8757  156.5615 C.ar    1  UNL1        0.0567
      6 C         143.2316  133.0112  155.3724 C.ar    1  UNL1        0.1209
      7 N         142.2960  133.4989  154.3061 N.ar    1  UNL1       -0.2108
      8 C         141.6583  134.8511  154.4290 C.ar    1  UNL1        0.2163
      9 N         140.7227  135.3388  153.3627 N.pl3   1  UNL1       -0.3274
     10 N         141.9562  135.7155  155.6181 N.ar    1  UNL1       -0.1813
     11 N         141.4806  137.0833  156.0090 N.ar    1  UNL1       -0.1451
     12 C         142.1222  137.4410  157.3168 C.ar    1  UNL1        0.1769
     13 N         142.9943  136.2942  157.7342 N.ar    1  UNL1       -0.2086
     14 C         142.8918  135.2278  156.6843 C.ar    1  UNL1        0.1695
     15 H         140.5272  134.7714  152.5822 H       1  UNL1        0.1452
     16 H         140.3042  136.2263  153.4433 H       1  UNL1        0.1452
     17 C         144.4763  129.6475  153.7215 C.3     1  UNL1        0.2525
     18 O         143.5713  130.7946  154.0604 O.3     1  UNL1       -0.4699
     19 C         141.9260  138.7208  158.0743 C.3     1  UNL1        0.1408
     20 N         141.2884  138.6986  159.4319 N.3     1  UNL1       -0.2644
     21 C         139.7941  138.6627  159.5581 C.3     1  UNL1        0.0942
     22 C         139.1564  138.6405  160.9157 C.3     1  UNL1        0.1095
     23 N         140.0131  138.6541  162.1470 N.pl3   1  UNL1       -0.2904
     24 C         141.5073  138.6900  162.0207 C.3     1  UNL1        0.1081
     25 C         142.1450  138.7122  160.6631 C.3     1  UNL1        0.0778
     26 C         143.6392  138.7480  160.5368 C.3     1  UNL1        0.0192
     27 C         139.3755  138.6319  163.5045 C.ar    1  UNL1        0.1318
     28 C         139.3725  137.3672  164.3111 C.ar    1  UNL1        0.0343
     29 C         138.7348  137.3450  165.6686 C.ar    1  UNL1        0.0045
     30 C         138.1002  138.5875  166.2196 C.ar    1  UNL1        0.0208
     31 C         138.1032  139.8521  165.4130 C.ar    1  UNL1        0.1003
     32 N         138.7409  139.8744  164.0555 N.ar    1  UNL1       -0.2292
@<TRIPOS>BOND
     1    17    18    1
     2    18     1    1
     3     1     2   ar
     4     2     3   ar
     5     3     4   ar
     6     4     5   ar
     7     5     6   ar
     8     6     7   ar
     9     7     8   ar
    10     8     9    1
    11     8    10   ar
    12    10    11   ar
    13    11    12   ar
    14    12    19    1
    15    19    20    1
    16    20    21    1
    17    21    22    1
    18    22    23    1
    19    23    27    1
    20    27    28   ar
    21    28    29   ar
    22    29    30   ar
    23    30    31   ar
    24    31    32   ar
    25    23    24    1
    26    24    25    1
    27    25    26    1
    28    12    13   ar
    29    13    14   ar
    30     6     1   ar
    31    14    10   ar
    32    14     5   ar
    33    25    20    1
    34    32    27   ar
    35     9    15    1
    36     9    16    1
@<TRIPOS>MOLECULE
*****
 32 36 0 0 0
SMALL
GASTEIGER

@<TRIPOS>ATOM
      1 C         142.8779  132.0001  153.5020 C.ar    1  UNL1        0.1564
      2 C         142.1313  132.3331  152.2444 C.ar    1  UNL1        0.0385
      3 C         141.4459  133.6604  152.1083 C.ar    1  UNL1        0.0033
      4 C         141.5070  134.6546  153.2298 C.ar    1  UNL1        0.0048
      5 C         142.2536  134.3215  154.4873 C.ar    1  UNL1        0.0567
      6 C         142.9391  132.9943  154.6235 C.ar    1  UNL1        0.1209
      7 N         143.6857  132.6613  155.8811 N.ar    1  UNL1       -0.2108
      8 C         143.7469  133.6555  157.0026 C.ar    1  UNL1        0.2163
      9 N         144.4935  133.3224  158.2603 N.pl3   1  UNL1       -0.3274
     10 N         143.0614  134.9827  156.8665 N.ar    1  UNL1       -0.1813
     11 N         142.9493  136.1545  157.7962 N.ar    1  UNL1       -0.1451
     12 C         142.1334  137.2117  157.1132 C.ar    1  UNL1        0.1769
     13 N         141.7413  136.6934  155.7613 N.ar    1  UNL1       -0.2086
     14 C         142.3148  135.3158  155.6089 C.ar    1  UNL1        0.1695
     15 H         144.9434  132.4513  158.3497 H       1  UNL1        0.1452
     16 H         144.5336  133.9750  158.9964 H       1  UNL1        0.1452
     17 C         144.0338  129.9427  152.4151 C.3     1  UNL1        0.2525
     18 O         143.5634  130.6728  153.6381 O.3     1  UNL1       -0.4699
     19 C         141.7730  138.5521  157.6821 C.3     1  UNL1        0.1408
     20 N         141.1812  138.6487  159.0571 N.3     1  UNL1       -0.2644
     21 C         139.7063  138.4588  159.2539 C.3     1  UNL1        0.0942
     22 C         139.1146  138.5554  160.6288 C.3     1  UNL1        0.1095
     23 N         139.9978  138.8418  161.8070 N.pl3   1  UNL1       -0.2904
     24 C         141.4726  139.0317  161.6102 C.3     1  UNL1        0.1081
     25 C         142.0643  138.9351  160.2352 C.3     1  UNL1        0.0778
     26 C         143.5392  139.1250  160.0384 C.3     1  UNL1        0.0192
     27 C         139.4061  138.9384  163.1820 C.ar    1  UNL1        0.1318
     28 C         139.3557  137.7259  164.0637 C.ar    1  UNL1        0.0343
     29 C         138.7640  137.8225  165.4386 C.ar    1  UNL1        0.0045
     30 C         138.2226  139.1316  165.9319 C.ar    1  UNL1        0.0208
     31 C         138.2729  140.3440  165.0502 C.ar    1  UNL1        0.1003
     32 N         138.8647  140.2474  163.6752 N.ar    1  UNL1       -0.2292
@<TRIPOS>BOND
     1    17    18    1
     2    18     1    1
     3     1     2   ar
     4     2     3   ar
     5     3     4   ar
     6     4     5   ar
     7     5     6   ar
     8     6     7   ar
     9     7     8   ar
    10     8     9    1
    11     8    10   ar
    12    10    11   ar
    13    11    12   ar
    14    12    19    1
    15    19    20    1
    16    20    21    1
    17    21    22    1
    18    22    23    1
    19    23    27    1
    20    27    28   ar
    21    28    29   ar
    22    29    30   ar
    23    30    31   ar
    24    31    32   ar
    25    23    24    1
    26    24    25    1
    27    25    26    1
    28    12    13   ar
    29    13    14   ar
    30     6     1   ar
    31    14    10   ar
    32    14     5   ar
    33    25    20    1
    34    32    27   ar
    35     9    15    1
    36     9    16    1
@<TRIPOS>MOLECULE
*****
 32 36 0 0 0
SMALL
GASTEIGER

@<TRIPOS>ATOM
      1 C         141.2248  141.5079  168.9153 C.ar    1  UNL1        0.1564
      2 C         142.4791  142.2472  168.5546 C.ar    1  UNL1        0.0385
      3 C         143.0554  142.1186  167.1757 C.ar    1  UNL1        0.0033
      4 C         142.3773  141.2506  166.1575 C.ar    1  UNL1        0.0048
      5 C         141.1230  140.5114  166.5181 C.ar    1  UNL1        0.0567
      6 C         140.5467  140.6400  167.8970 C.ar    1  UNL1        0.1209
      7 N         139.2923  139.9007  168.2576 N.ar    1  UNL1       -0.2108
      8 C         138.6143  139.0328  167.2394 C.ar    1  UNL1        0.2163
      9 N         137.3599  138.2935  167.6000 N.pl3   1  UNL1       -0.3274
     10 N         139.1906  138.9041  165.8605 N.ar    1  UNL1       -0.1813
     11 N         138.7470  138.1285  164.6556 N.ar    1  UNL1       -0.1451
     12 C         139.7273  138.3883  163.5504 C.ar    1  UNL1        0.1769
     13 N         140.7766  139.3247  164.0722 N.ar    1  UNL1       -0.2086
     14 C         140.4449  139.6434  165.4998 C.ar    1  UNL1        0.1695
     15 H         136.9817  138.3779  168.5050 H       1  UNL1        0.1452
     16 H         136.9149  137.7238  166.9317 H       1  UNL1        0.1452
     17 C         139.7778  142.8089  170.6368 C.3     1  UNL1        0.2525
     18 O         140.6485  141.6366  170.2942 O.3     1  UNL1       -0.4699
     19 C         139.6685  137.8130  162.1663 C.3     1  UNL1        0.1408
     20 N         140.6279  138.2876  161.1155 N.3     1  UNL1       -0.2644
     21 C         142.0665  137.8659  161.1679 C.3     1  UNL1        0.0942
     22 C         143.0259  138.3405  160.1170 C.3     1  UNL1        0.1095
     23 N         142.5467  139.2368  159.0138 N.pl3   1  UNL1       -0.2904
     24 C         141.1081  139.6584  158.9614 C.3     1  UNL1        0.1081
     25 C         140.1487  139.1838  160.0122 C.3     1  UNL1        0.0778
     26 C         138.7102  139.6053  159.9599 C.3     1  UNL1        0.0192
     27 C         143.5061  139.7114  157.9629 C.ar    1  UNL1        0.1318
     28 C         144.2866  140.9746  158.1754 C.ar    1  UNL1        0.0343
     29 C         145.2460  141.4492  157.1246 C.ar    1  UNL1        0.0045
     30 C         145.4249  140.6606  155.8612 C.ar    1  UNL1        0.0208
     31 C         144.6444  139.3974  155.6487 C.ar    1  UNL1        0.1003
     32 N         143.6850  138.9228  156.6995 N.ar    1  UNL1       -0.2292
@<TRIPOS>BOND
     1    17    18    1
     2    18     1    1
     3     1     2   ar
     4     2     3   ar
     5     3     4   ar
     6     4     5   ar
     7     5     6   ar
     8     6     7   ar
     9     7     8   ar
    10     8     9    1
    11     8    10   ar
    12    10    11   ar
    13    11    12   ar
    14    12    19    1
    15    19    20    1
    16    20    21    1
    17    21    22    1
    18    22    23    1
    19    23    27    1
    20    27    28   ar
    21    28    29   ar
    22    29    30   ar
    23    30    31   ar
    24    31    32   ar
    25    23    24    1
    26    24    25    1
    27    25    26    1
    28    12    13   ar
    29    13    14   ar
    30     6     1   ar
    31    14    10   ar
    32    14     5   ar
    33    25    20    1
    34    32    27   ar
    35     9    15    1
    36     9    16    1
@<TRIPOS>MOLECULE
*****
 32 36 0 0 0
SMALL
GASTEIGER

@<TRIPOS>ATOM
      1 C         138.4242  139.5131  167.0211 C.ar    1  UNL1        0.1564
      2 C         139.2258  139.8306  168.2484 C.ar    1  UNL1        0.0385
      3 C         140.3370  140.8358  168.1793 C.ar    1  UNL1        0.0033
      4 C         140.6466  141.5235  166.8827 C.ar    1  UNL1        0.0048
      5 C         139.8449  141.2061  165.6553 C.ar    1  UNL1        0.0567
      6 C         138.7337  140.2009  165.7245 C.ar    1  UNL1        0.1209
      7 N         137.9321  139.8834  164.4970 N.ar    1  UNL1       -0.2108
      8 C         138.2416  140.5711  163.2004 C.ar    1  UNL1        0.2163
      9 N         137.4400  140.2536  161.9729 N.pl3   1  UNL1       -0.3274
     10 N         139.3528  141.5763  163.1312 N.ar    1  UNL1       -0.1813
     11 N         139.8853  142.4078  162.0020 N.ar    1  UNL1       -0.1451
     12 C         141.0159  143.2391  162.5315 C.ar    1  UNL1        0.1769
     13 N         141.1823  142.9214  163.9880 N.ar    1  UNL1       -0.2086
     14 C         140.1545  141.8938  164.3586 C.ar    1  UNL1        0.1695
     15 H         136.7106  139.5939  162.0183 H       1  UNL1        0.1452
     16 H         137.6432  140.7050  161.1219 H       1  UNL1        0.1452
     17 C         137.5680  137.0804  166.7067 C.3     1  UNL1        0.2525
     18 O         137.3130  138.5079  167.0903 O.3     1  UNL1       -0.4699
     19 C         141.8363  144.2166  161.7429 C.3     1  UNL1        0.1408
     20 N         142.7403  143.7274  160.6505 N.3     1  UNL1       -0.2644
     21 C         142.3343  143.8834  159.2149 C.3     1  UNL1        0.0942
     22 C         143.2384  143.3943  158.1224 C.3     1  UNL1        0.1095
     23 N         144.5484  142.7492  158.4656 N.pl3   1  UNL1       -0.2904
     24 C         144.9544  142.5933  159.9011 C.3     1  UNL1        0.1081
     25 C         144.0503  143.0824  160.9936 C.3     1  UNL1        0.0778
     26 C         144.4563  142.9264  162.4291 C.3     1  UNL1        0.0192
     27 C         145.4525  142.2601  157.3731 C.ar    1  UNL1        0.1318
     28 C         146.8464  142.8015  157.2545 C.ar    1  UNL1        0.0343
     29 C         147.7505  142.3124  156.1620 C.ar    1  UNL1        0.0045
     30 C         147.2606  141.2819  155.1882 C.ar    1  UNL1        0.0208
     31 C         145.8668  140.7406  155.3069 C.ar    1  UNL1        0.1003
     32 N         144.9627  141.2297  156.3993 N.ar    1  UNL1       -0.2292
@<TRIPOS>BOND
     1    17    18    1
     2    18     1    1
     3     1     2   ar
     4     2     3   ar
     5     3     4   ar
     6     4     5   ar
     7     5     6   ar
     8     6     7   ar
     9     7     8   ar
    10     8     9    1
    11     8    10   ar
    12    10    11   ar
    13    11    12   ar
    14    12    19    1
    15    19    20    1
    16    20    21    1
    17    21    22    1
    18    22    23    1
    19    23    27    1
    20    27    28   ar
    21    28    29   ar
    22    29    30   ar
    23    30    31   ar
    24    31    32   ar
    25    23    24    1
    26    24    25    1
    27    25    26    1
    28    12    13   ar
    29    13    14   ar
    30     6     1   ar
    31    14    10   ar
    32    14     5   ar
    33    25    20    1
    34    32    27   ar
    35     9    15    1
    36     9    16    1
@<TRIPOS>MOLECULE
*****
 32 36 0 0 0
SMALL
GASTEIGER

@<TRIPOS>ATOM
      1 C         142.2176  141.0613  169.2152 C.ar    1  UNL1        0.1564
      2 C         141.8044  142.1054  170.2096 C.ar    1  UNL1        0.0385
      3 C         140.8710  143.2053  169.7983 C.ar    1  UNL1        0.0033
      4 C         140.3509  143.2610  168.3925 C.ar    1  UNL1        0.0048
      5 C         140.7642  142.2169  167.3980 C.ar    1  UNL1        0.0567
      6 C         141.6975  141.1171  167.8094 C.ar    1  UNL1        0.1209
      7 N         142.1107  140.0729  166.8148 N.ar    1  UNL1       -0.2108
      8 C         141.5906  140.1286  165.4090 C.ar    1  UNL1        0.2163
      9 N         142.0038  139.0845  164.4144 N.pl3   1  UNL1       -0.3274
     10 N         140.6573  141.2285  164.9977 N.ar    1  UNL1       -0.1813
     11 N         139.9869  141.5404  163.6926 N.ar    1  UNL1       -0.1451
     12 C         139.1593  142.7772  163.8805 C.ar    1  UNL1        0.1769
     13 N         139.3183  143.2298  165.3017 N.ar    1  UNL1       -0.2086
     14 C         140.2440  142.2726  165.9921 C.ar    1  UNL1        0.1695
     15 H         142.6164  138.3626  164.6844 H       1  UNL1        0.1452
     16 H         141.6625  139.1211  163.4918 H       1  UNL1        0.1452
     17 C         142.6012  138.6684  170.1515 C.3     1  UNL1        0.2525
     18 O         143.1510  139.9615  169.6265 O.3     1  UNL1       -0.4699
     19 C         138.3201  143.4444  162.8313 C.3     1  UNL1        0.1408
     20 N         138.9079  143.7556  161.4868 N.3     1  UNL1       -0.2644
     21 C         138.6401  142.8478  160.3230 C.3     1  UNL1        0.0942
     22 C         139.2279  143.1590  158.9784 C.3     1  UNL1        0.1095
     23 N         140.0833  144.3779  158.7977 N.pl3   1  UNL1       -0.2904
     24 C         140.3510  145.2855  159.9615 C.3     1  UNL1        0.1081
     25 C         139.7633  144.9744  161.3060 C.3     1  UNL1        0.0778
     26 C         140.0310  145.8821  162.4698 C.3     1  UNL1        0.0192
     27 C         140.6711  144.6890  157.4532 C.ar    1  UNL1        0.1318
     28 C         140.1963  145.8876  156.6863 C.ar    1  UNL1        0.0343
     29 C         140.7840  146.1987  155.3418 C.ar    1  UNL1        0.0045
     30 C         141.8465  145.3113  154.7642 C.ar    1  UNL1        0.0208
     31 C         142.3213  144.1128  155.5310 C.ar    1  UNL1        0.1003
     32 N         141.7336  143.8017  156.8756 N.ar    1  UNL1       -0.2292
@<TRIPOS>BOND
     1    17    18    1
     2    18     1    1
     3     1     2   ar
     4     2     3   ar
     5     3     4   ar
     6     4     5   ar
     7     5     6   ar
     8     6     7   ar
     9     7     8   ar
    10     8     9    1
    11     8    10   ar
    12    10    11   ar
    13    11    12   ar
    14    12    19    1
    15    19    20    1
    16    20    21    1
    17    21    22    1
    18    22    23    1
    19    23    27    1
    20    27    28   ar
    21    28    29   ar
    22    29    30   ar
    23    30    31   ar
    24    31    32   ar
    25    23    24    1
    26    24    25    1
    27    25    26    1
    28    12    13   ar
    29    13    14   ar
    30     6     1   ar
    31    14    10   ar
    32    14     5   ar
    33    25    20    1
    34    32    27   ar
    35     9    15    1
    36     9    16    1
@<TRIPOS>MOLECULE
*****
 32 36 0 0 0
SMALL
GASTEIGER

@<TRIPOS>ATOM
      1 C         142.0092  141.9431  168.7854 C.ar    1  UNL1        0.1564
      2 C         140.9744  143.0229  168.6707 C.ar    1  UNL1        0.0385
      3 C         139.9911  143.0022  167.5382 C.ar    1  UNL1        0.0033
      4 C         140.0425  141.9016  166.5204 C.ar    1  UNL1        0.0048
      5 C         141.0772  140.8218  166.6351 C.ar    1  UNL1        0.0567
      6 C         142.0606  140.8425  167.7675 C.ar    1  UNL1        0.1209
      7 N         143.0954  139.7627  167.8822 N.ar    1  UNL1       -0.2108
      8 C         143.1468  138.6621  166.8644 C.ar    1  UNL1        0.2163
      9 N         144.1817  137.5822  166.9790 N.pl3   1  UNL1       -0.3274
     10 N         142.1635  138.6413  165.7319 N.ar    1  UNL1       -0.1813
     11 N         141.9715  137.6919  164.5866 N.ar    1  UNL1       -0.1451
     12 C         140.8181  138.1849  163.7641 C.ar    1  UNL1        0.1769
     13 N         140.2972  139.4391  164.4011 N.ar    1  UNL1       -0.2086
     14 C         141.1287  139.7211  165.6172 C.ar    1  UNL1        0.1695
     15 H         144.8271  137.5958  167.7223 H       1  UNL1        0.1452
     16 H         144.2154  136.8598  166.3109 H       1  UNL1        0.1452
     17 C         143.2021  143.2227  170.7062 C.3     1  UNL1        0.2525
     18 O         142.9926  141.9639  169.9179 O.3     1  UNL1       -0.4699
     19 C         140.2800  137.5375  162.5225 C.3     1  UNL1        0.1408
     20 N         139.7048  138.3827  161.4249 N.3     1  UNL1       -0.2644
     21 C         138.2885  138.8684  161.5161 C.3     1  UNL1        0.0942
     22 C         137.7134  139.7137  160.4185 C.3     1  UNL1        0.1095
     23 N         138.5545  140.0732  159.2297 N.pl3   1  UNL1       -0.2904
     24 C         139.9708  139.5875  159.1385 C.3     1  UNL1        0.1081
     25 C         140.5459  138.7423  160.2361 C.3     1  UNL1        0.0778
     26 C         141.9621  138.2566  160.1450 C.3     1  UNL1        0.0192
     27 C         137.9794  140.9184  158.1320 C.ar    1  UNL1        0.1318
     28 C         138.6020  142.2422  157.8003 C.ar    1  UNL1        0.0343
     29 C         138.0268  143.0875  156.7026 C.ar    1  UNL1        0.0045
     30 C         136.8291  142.6089  155.9368 C.ar    1  UNL1        0.0208
     31 C         136.2065  141.2852  156.2686 C.ar    1  UNL1        0.1003
     32 N         136.7817  140.4400  157.3662 N.ar    1  UNL1       -0.2292
@<TRIPOS>BOND
     1    17    18    1
     2    18     1    1
     3     1     2   ar
     4     2     3   ar
     5     3     4   ar
     6     4     5   ar
     7     5     6   ar
     8     6     7   ar
     9     7     8   ar
    10     8     9    1
    11     8    10   ar
    12    10    11   ar
    13    11    12   ar
    14    12    19    1
    15    19    20    1
    16    20    21    1
    17    21    22    1
    18    22    23    1
    19    23    27    1
    20    27    28   ar
    21    28    29   ar
    22    29    30   ar
    23    30    31   ar
    24    31    32   ar
    25    23    24    1
    26    24    25    1
    27    25    26    1
    28    12    13   ar
    29    13    14   ar
    30     6     1   ar
    31    14    10   ar
    32    14     5   ar
    33    25    20    1
    34    32    27   ar
    35     9    15    1
    36     9    16    1
@<TRIPOS>MOLECULE
*****
 32 36 0 0 0
SMALL
GASTEIGER

@<TRIPOS>ATOM
      1 C         142.1916  129.5796  155.5725 C.ar    1  UNL1        0.1564
      2 C         140.9219  129.4857  154.7794 C.ar    1  UNL1        0.0385
      3 C         140.1446  130.7277  154.4583 C.ar    1  UNL1        0.0033
      4 C         140.6369  132.0637  154.9303 C.ar    1  UNL1        0.0048
      5 C         141.9066  132.1576  155.7233 C.ar    1  UNL1        0.0567
      6 C         142.6840  130.9156  156.0445 C.ar    1  UNL1        0.1209
      7 N         143.9537  131.0095  156.8376 N.ar    1  UNL1       -0.2108
      8 C         144.4460  132.3455  157.3096 C.ar    1  UNL1        0.2163
      9 N         145.7158  132.4395  158.1027 N.pl3   1  UNL1       -0.3274
     10 N         143.6687  133.5875  156.9885 N.ar    1  UNL1       -0.1813
     11 N         143.9046  135.0321  157.3164 N.ar    1  UNL1       -0.1451
     12 C         142.7807  135.8309  156.7259 C.ar    1  UNL1        0.1769
     13 N         141.8501  134.8801  156.0331 N.ar    1  UNL1       -0.2086
     14 C         142.3990  133.4936  156.1954 C.ar    1  UNL1        0.1695
     15 H         146.2260  131.6243  158.3135 H       1  UNL1        0.1452
     16 H         146.0389  133.3163  158.4125 H       1  UNL1        0.1452
     17 C         142.6480  127.5504  157.1294 C.3     1  UNL1        0.2525
     18 O         142.9690  128.3376  155.8936 O.3     1  UNL1       -0.4699
     19 C         142.6161  137.3194  156.8130 C.3     1  UNL1        0.1408
     20 N         142.9491  138.0375  158.0872 N.3     1  UNL1       -0.2644
     21 C         142.9101  137.3028  159.3944 C.3     1  UNL1        0.0942
     22 C         143.2432  138.0208  160.6685 C.3     1  UNL1        0.1095
     23 N         143.6152  139.4736  160.6355 N.pl3   1  UNL1       -0.2904
     24 C         143.6542  140.2083  159.3283 C.3     1  UNL1        0.1081
     25 C         143.3212  139.4902  158.0541 C.3     1  UNL1        0.0778
     26 C         143.3602  140.2248  156.7470 C.3     1  UNL1        0.0192
     27 C         143.9483  140.1917  161.9096 C.ar    1  UNL1        0.1318
     28 C         143.0816  140.0116  163.1206 C.ar    1  UNL1        0.0343
     29 C         143.4146  140.7297  164.3948 C.ar    1  UNL1        0.0045
     30 C         144.6144  141.6279  164.4579 C.ar    1  UNL1        0.0208
     31 C         145.4810  141.8080  163.2469 C.ar    1  UNL1        0.1003
     32 N         145.1479  141.0899  161.9728 N.ar    1  UNL1       -0.2292
@<TRIPOS>BOND
     1    17    18    1
     2    18     1    1
     3     1     2   ar
     4     2     3   ar
     5     3     4   ar
     6     4     5   ar
     7     5     6   ar
     8     6     7   ar
     9     7     8   ar
    10     8     9    1
    11     8    10   ar
    12    10    11   ar
    13    11    12   ar
    14    12    19    1
    15    19    20    1
    16    20    21    1
    17    21    22    1
    18    22    23    1
    19    23    27    1
    20    27    28   ar
    21    28    29   ar
    22    29    30   ar
    23    30    31   ar
    24    31    32   ar
    25    23    24    1
    26    24    25    1
    27    25    26    1
    28    12    13   ar
    29    13    14   ar
    30     6     1   ar
    31    14    10   ar
    32    14     5   ar
    33    25    20    1
    34    32    27   ar
    35     9    15    1
    36     9    16    1
