@<TRIPOS>MOLECULE
*****
 30 33 0 0 0
SMALL
GASTEIGER

@<TRIPOS>ATOM
      1 C         139.6590  146.4080  161.7521 C.3     1  UNL1        0.0324
      2 C         140.6703  145.3342  162.0245 C.ar    1  UNL1       -0.0071
      3 C         140.7464  144.7027  163.3829 C.ar    1  UNL1        0.0115
      4 C         141.7577  143.6289  163.6553 C.ar    1  UNL1        0.0476
      5 C         142.6929  143.1865  162.5693 C.ar    1  UNL1        0.0158
      6 C         142.6169  143.8180  161.2108 C.ar    1  UNL1        0.0156
      7 C         141.6055  144.8918  160.9384 C.ar    1  UNL1        0.0466
      8 N         141.8338  142.9975  165.0139 N.pl3   1  UNL1       -0.3061
      9 C         143.0815  142.5192  165.6953 C.3     1  UNL1        0.0923
     10 C         142.6943  141.9596  167.0320 C.3     1  UNL1        0.0391
     11 C         141.2071  142.0921  167.1768 C.3     1  UNL1        0.0790
     12 C         140.6753  142.7335  165.9295 C.3     1  UNL1        0.1067
     13 N         140.3945  141.6591  168.3610 N.3     1  UNL1       -0.2736
     14 C         139.7252  140.3277  168.5316 C.3     1  UNL1        0.0721
     15 C         139.0256  140.3273  169.8585 C.3     1  UNL1        0.0187
     16 C         139.2626  141.6585  170.5078 C.3     1  UNL1        0.0174
     17 C         140.1087  142.4816  169.5823 C.3     1  UNL1        0.0576
     18 C         140.5852  143.8815  169.8340 C.3     1  UNL1        0.0173
     19 N         141.5295  145.5232  159.5799 N.am    1  UNL1       -0.2806
     20 C         140.4840  145.0752  158.6021 C.2     1  UNL1        0.2493
     21 O         139.5145  143.9958  158.9827 O.2     1  UNL1       -0.2698
     22 H         142.1658  146.2317  159.3300 H       1  UNL1        0.1552
     23 C         140.4079  145.7067  157.2435 C.ar    1  UNL1        0.0520
     24 C         139.4734  146.8547  157.0013 C.ar    1  UNL1        0.0338
     25 C         139.3974  147.4862  155.6429 C.ar    1  UNL1        0.1403
     26 F         138.4629  148.6343  155.4007 F       1  UNL1       -0.2042
     27 C         140.2558  146.9695  154.5266 C.ar    1  UNL1        0.0293
     28 C         141.1903  145.8215  154.7688 C.ar    1  UNL1       -0.0018
     29 C         141.2664  145.1900  156.1272 C.ar    1  UNL1       -0.0173
     30 C         142.2008  144.0420  156.3694 C.3     1  UNL1        0.0312
@<TRIPOS>BOND
     1     1     2    1
     2     2     3   ar
     3     3     4   ar
     4     4     8    1
     5     8     9    1
     6     9    10    1
     7    10    11    1
     8    11    13    1
     9    13    14    1
    10    14    15    1
    11    15    16    1
    12    16    17    1
    13    17    18    1
    14    11    12    1
    15     4     5   ar
    16     5     6   ar
    17     6     7   ar
    18     7    19    1
    19    19    20   am
    20    20    21    2
    21    20    23    1
    22    23    24   ar
    23    24    25   ar
    24    25    26    1
    25    25    27   ar
    26    27    28   ar
    27    28    29   ar
    28    29    30    1
    29     7     2   ar
    30    29    23   ar
    31    12     8    1
    32    17    13    1
    33    19    22    1
@<TRIPOS>MOLECULE
*****
 30 33 0 0 0
SMALL
GASTEIGER

@<TRIPOS>ATOM
      1 C         144.9969  141.3506  162.6792 C.3     1  UNL1        0.0324
      2 C         144.1618  140.2035  162.1928 C.ar    1  UNL1       -0.0071
      3 C         144.0175  139.9519  160.7211 C.ar    1  UNL1        0.0115
      4 C         143.1824  138.8047  160.2347 C.ar    1  UNL1        0.0476
      5 C         142.4916  137.9091  161.2199 C.ar    1  UNL1        0.0158
      6 C         142.6360  138.1607  162.6915 C.ar    1  UNL1        0.0156
      7 C         143.4711  139.3079  163.1780 C.ar    1  UNL1        0.0466
      8 N         143.0380  138.5532  158.7629 N.pl3   1  UNL1       -0.3061
      9 C         143.2348  139.5640  157.6722 C.3     1  UNL1        0.0923
     10 C         142.9900  138.8822  156.3588 C.3     1  UNL1        0.0391
     11 C         142.6419  137.4500  156.6377 C.3     1  UNL1        0.0790
     12 C         142.6716  137.2467  158.1235 C.3     1  UNL1        0.1067
     13 N         142.3205  136.4047  155.6110 N.3     1  UNL1       -0.2736
     14 C         143.3012  135.4690  154.9687 C.3     1  UNL1        0.0721
     15 C         142.5488  134.5976  154.0071 C.3     1  UNL1        0.0187
     16 C         141.1031  134.9948  154.0552 C.3     1  UNL1        0.0174
     17 C         140.9621  136.1117  155.0465 C.3     1  UNL1        0.0576
     18 C         139.6865  136.8125  155.4094 C.3     1  UNL1        0.0173
     19 N         143.6154  139.5594  164.6497 N.am    1  UNL1       -0.2806
     20 C         142.5351  140.2844  165.3962 C.2     1  UNL1        0.2493
     21 O         141.3104  140.7579  164.6710 O.2     1  UNL1       -0.2698
     22 H         144.4192  139.2486  165.1257 H       1  UNL1        0.1552
     23 C         142.6794  140.5359  166.8680 C.ar    1  UNL1        0.0520
     24 C         142.3738  139.4432  167.8491 C.ar    1  UNL1        0.0338
     25 C         142.5181  139.6946  169.3207 C.ar    1  UNL1        0.1403
     26 F         142.2125  138.6019  170.3019 F       1  UNL1       -0.2042
     27 C         142.9680  141.0388  169.8113 C.ar    1  UNL1        0.0293
     28 C         143.2736  142.1316  168.8302 C.ar    1  UNL1       -0.0018
     29 C         143.1293  141.8801  167.3585 C.ar    1  UNL1       -0.0173
     30 C         143.4349  142.9728  166.3774 C.3     1  UNL1        0.0312
@<TRIPOS>BOND
     1     1     2    1
     2     2     3   ar
     3     3     4   ar
     4     4     8    1
     5     8     9    1
     6     9    10    1
     7    10    11    1
     8    11    13    1
     9    13    14    1
    10    14    15    1
    11    15    16    1
    12    16    17    1
    13    17    18    1
    14    11    12    1
    15     4     5   ar
    16     5     6   ar
    17     6     7   ar
    18     7    19    1
    19    19    20   am
    20    20    21    2
    21    20    23    1
    22    23    24   ar
    23    24    25   ar
    24    25    26    1
    25    25    27   ar
    26    27    28   ar
    27    28    29   ar
    28    29    30    1
    29     7     2   ar
    30    29    23   ar
    31    12     8    1
    32    17    13    1
    33    19    22    1
@<TRIPOS>MOLECULE
*****
 30 33 0 0 0
SMALL
GASTEIGER

@<TRIPOS>ATOM
      1 C         138.4123  143.4274  164.3482 C.3     1  UNL1        0.0324
      2 C         139.5446  143.5938  163.3786 C.ar    1  UNL1       -0.0071
      3 C         139.2590  143.8169  161.9231 C.ar    1  UNL1        0.0115
      4 C         140.3914  143.9833  160.9535 C.ar    1  UNL1        0.0476
      5 C         141.8093  143.9266  161.4395 C.ar    1  UNL1        0.0158
      6 C         142.0949  143.7035  162.8950 C.ar    1  UNL1        0.0156
      7 C         140.9626  143.5371  163.8646 C.ar    1  UNL1        0.0466
      8 N         140.1057  144.2064  159.4979 N.pl3   1  UNL1       -0.3061
      9 C         139.6166  143.1731  158.5269 C.3     1  UNL1        0.0923
     10 C         139.4676  143.8301  157.1867 C.3     1  UNL1        0.0391
     11 C         139.8648  145.2696  157.3294 C.3     1  UNL1        0.0790
     12 C         140.2591  145.5021  158.7578 C.3     1  UNL1        0.1067
     13 N         139.8671  146.2962  156.2358 N.3     1  UNL1       -0.2736
     14 C         139.0161  147.5302  156.1831 C.3     1  UNL1        0.0721
     15 C         139.3439  148.2657  154.9176 C.3     1  UNL1        0.0187
     16 C         140.3976  147.4861  154.1881 C.3     1  UNL1        0.0174
     17 C         140.7209  146.2689  155.0028 C.3     1  UNL1        0.0576
     18 C         141.7223  145.2103  154.6470 C.3     1  UNL1        0.0173
     19 N         141.2482  143.3139  165.3202 N.am    1  UNL1       -0.2806
     20 C         141.6416  141.9508  165.8069 C.2     1  UNL1        0.2493
     21 O         141.7494  140.8107  164.8381 O.2     1  UNL1       -0.2698
     22 H         141.1775  144.0622  165.9560 H       1  UNL1        0.1552
     23 C         141.9272  141.7276  167.2625 C.ar    1  UNL1        0.0520
     24 C         143.1766  142.2870  167.8760 C.ar    1  UNL1        0.0338
     25 C         143.4622  142.0639  169.3315 C.ar    1  UNL1        0.1403
     26 F         144.7116  142.6232  169.9449 F       1  UNL1       -0.2042
     27 C         142.4986  141.2814  170.1735 C.ar    1  UNL1        0.0293
     28 C         141.2493  140.7221  169.5601 C.ar    1  UNL1       -0.0018
     29 C         140.9636  140.9452  168.1046 C.ar    1  UNL1       -0.0173
     30 C         139.7143  140.3858  167.4911 C.3     1  UNL1        0.0312
@<TRIPOS>BOND
     1     1     2    1
     2     2     3   ar
     3     3     4   ar
     4     4     8    1
     5     8     9    1
     6     9    10    1
     7    10    11    1
     8    11    13    1
     9    13    14    1
    10    14    15    1
    11    15    16    1
    12    16    17    1
    13    17    18    1
    14    11    12    1
    15     4     5   ar
    16     5     6   ar
    17     6     7   ar
    18     7    19    1
    19    19    20   am
    20    20    21    2
    21    20    23    1
    22    23    24   ar
    23    24    25   ar
    24    25    26    1
    25    25    27   ar
    26    27    28   ar
    27    28    29   ar
    28    29    30    1
    29     7     2   ar
    30    29    23   ar
    31    12     8    1
    32    17    13    1
    33    19    22    1
@<TRIPOS>MOLECULE
*****
 30 33 0 0 0
SMALL
GASTEIGER

@<TRIPOS>ATOM
      1 C         141.2843  137.5314  164.6830 C.3     1  UNL1        0.0324
      2 C         142.0874  138.3742  163.7371 C.ar    1  UNL1       -0.0071
      3 C         142.0800  138.0681  162.2687 C.ar    1  UNL1        0.0115
      4 C         142.8831  138.9109  161.3229 C.ar    1  UNL1        0.0476
      5 C         143.6936  140.0598  161.8454 C.ar    1  UNL1        0.0158
      6 C         143.7010  140.3659  163.3138 C.ar    1  UNL1        0.0156
      7 C         142.8979  139.5231  164.2597 C.ar    1  UNL1        0.0466
      8 N         142.8757  138.6048  159.8544 N.pl3   1  UNL1       -0.3061
      9 C         143.0601  139.5981  158.7457 C.3     1  UNL1        0.0923
     10 C         142.9810  138.8588  157.4430 C.3     1  UNL1        0.0391
     11 C         142.7477  137.4084  157.7466 C.3     1  UNL1        0.0790
     12 C         142.6827  137.2515  159.2369 C.3     1  UNL1        0.1067
     13 N         142.6047  136.3083  156.7370 N.3     1  UNL1       -0.2736
     14 C         143.6269  135.2541  156.4311 C.3     1  UNL1        0.0721
     15 C         143.0682  134.3634  155.3612 C.3     1  UNL1        0.0187
     16 C         141.7008  134.8672  155.0060 C.3     1  UNL1        0.0174
     17 C         141.4143  136.0692  155.8563 C.3     1  UNL1        0.0576
     18 C         140.1579  136.8883  155.8304 C.3     1  UNL1        0.0173
     19 N         142.9053  139.8292  165.7281 N.am    1  UNL1       -0.2806
     20 C         142.0262  140.9161  166.2721 C.2     1  UNL1        0.2493
     21 O         141.1397  141.6968  165.3477 O.2     1  UNL1       -0.2698
     22 H         143.4871  139.3168  166.3349 H       1  UNL1        0.1552
     23 C         142.0336  141.2222  167.7406 C.ar    1  UNL1        0.0520
     24 C         143.1709  141.9952  168.3398 C.ar    1  UNL1        0.0338
     25 C         143.1783  142.3014  169.8082 C.ar    1  UNL1        0.1403
     26 F         144.3156  143.0744  170.4074 F       1  UNL1       -0.2042
     27 C         142.0485  141.8345  170.6773 C.ar    1  UNL1        0.0293
     28 C         140.9112  141.0615  170.0781 C.ar    1  UNL1       -0.0018
     29 C         140.9038  140.7553  168.6097 C.ar    1  UNL1       -0.0173
     30 C         139.7665  139.9823  168.0105 C.3     1  UNL1        0.0312
@<TRIPOS>BOND
     1     1     2    1
     2     2     3   ar
     3     3     4   ar
     4     4     8    1
     5     8     9    1
     6     9    10    1
     7    10    11    1
     8    11    13    1
     9    13    14    1
    10    14    15    1
    11    15    16    1
    12    16    17    1
    13    17    18    1
    14    11    12    1
    15     4     5   ar
    16     5     6   ar
    17     6     7   ar
    18     7    19    1
    19    19    20   am
    20    20    21    2
    21    20    23    1
    22    23    24   ar
    23    24    25   ar
    24    25    26    1
    25    25    27   ar
    26    27    28   ar
    27    28    29   ar
    28    29    30    1
    29     7     2   ar
    30    29    23   ar
    31    12     8    1
    32    17    13    1
    33    19    22    1
@<TRIPOS>MOLECULE
*****
 30 33 0 0 0
SMALL
GASTEIGER

@<TRIPOS>ATOM
      1 C         138.0917  140.2207  164.6788 C.3     1  UNL1        0.0324
      2 C         138.9829  140.6672  163.5579 C.ar    1  UNL1       -0.0071
      3 C         138.4110  140.8940  162.1899 C.ar    1  UNL1        0.0115
      4 C         139.3022  141.3405  161.0690 C.ar    1  UNL1        0.0476
      5 C         140.7653  141.5601  161.3160 C.ar    1  UNL1        0.0158
      6 C         141.3372  141.3333  162.6840 C.ar    1  UNL1        0.0156
      7 C         140.4460  140.8869  163.8049 C.ar    1  UNL1        0.0466
      8 N         138.7302  141.5673  159.7009 N.pl3   1  UNL1       -0.3061
      9 C         138.8255  142.8347  158.9044 C.3     1  UNL1        0.0923
     10 C         138.1167  142.6172  157.6005 C.3     1  UNL1        0.0391
     11 C         137.5833  141.2152  157.5910 C.3     1  UNL1        0.0790
     12 C         137.9625  140.5663  158.8892 C.3     1  UNL1        0.1067
     13 N         136.8071  140.5746  156.4788 N.3     1  UNL1       -0.2736
     14 C         135.3169  140.6065  156.3115 C.3     1  UNL1        0.0721
     15 C         134.9736  139.8412  155.0679 C.3     1  UNL1        0.0187
     16 C         136.2517  139.3365  154.4666 C.3     1  UNL1        0.0174
     17 C         137.3849  139.7898  155.3386 C.3     1  UNL1        0.0576
     18 C         138.8404  139.5077  155.1105 C.3     1  UNL1        0.0173
     19 N         141.0180  140.6601  165.1730 N.am    1  UNL1       -0.2806
     20 C         140.9277  141.7383  166.2118 C.2     1  UNL1        0.2493
     21 O         140.2654  143.0433  165.8827 O.2     1  UNL1       -0.2698
     22 H         141.4526  139.8035  165.3890 H       1  UNL1        0.1552
     23 C         141.4996  141.5115  167.5799 C.ar    1  UNL1        0.0520
     24 C         142.7945  142.1612  167.9685 C.ar    1  UNL1        0.0338
     25 C         143.3665  141.9345  169.3365 C.ar    1  UNL1        0.1403
     26 F         144.6614  142.5842  169.7252 F       1  UNL1       -0.2042
     27 C         142.6436  141.0580  170.3158 C.ar    1  UNL1        0.0293
     28 C         141.3487  140.4082  169.9272 C.ar    1  UNL1       -0.0018
     29 C         140.7767  140.6350  168.5592 C.ar    1  UNL1       -0.0173
     30 C         139.4818  139.9852  168.1705 C.3     1  UNL1        0.0312
@<TRIPOS>BOND
     1     1     2    1
     2     2     3   ar
     3     3     4   ar
     4     4     8    1
     5     8     9    1
     6     9    10    1
     7    10    11    1
     8    11    13    1
     9    13    14    1
    10    14    15    1
    11    15    16    1
    12    16    17    1
    13    17    18    1
    14    11    12    1
    15     4     5   ar
    16     5     6   ar
    17     6     7   ar
    18     7    19    1
    19    19    20   am
    20    20    21    2
    21    20    23    1
    22    23    24   ar
    23    24    25   ar
    24    25    26    1
    25    25    27   ar
    26    27    28   ar
    27    28    29   ar
    28    29    30    1
    29     7     2   ar
    30    29    23   ar
    31    12     8    1
    32    17    13    1
    33    19    22    1
@<TRIPOS>MOLECULE
*****
 30 33 0 0 0
SMALL
GASTEIGER

@<TRIPOS>ATOM
      1 C         143.0643  138.3023  162.2640 C.3     1  UNL1        0.0324
      2 C         142.4710  138.2905  160.8864 C.ar    1  UNL1       -0.0071
      3 C         143.0355  137.3824  159.8344 C.ar    1  UNL1        0.0115
      4 C         142.4422  137.3706  158.4568 C.ar    1  UNL1        0.0476
      5 C         141.2843  138.2668  158.1312 C.ar    1  UNL1        0.0158
      6 C         140.7198  139.1748  159.1831 C.ar    1  UNL1        0.0156
      7 C         141.3131  139.1867  160.5607 C.ar    1  UNL1        0.0466
      8 N         143.0068  136.4625  157.4048 N.pl3   1  UNL1       -0.3061
      9 C         143.6110  136.8922  156.1009 C.3     1  UNL1        0.0923
     10 C         144.0439  135.6605  155.3623 C.3     1  UNL1        0.0391
     11 C         143.7073  134.4695  156.2098 C.3     1  UNL1        0.0790
     12 C         143.0663  134.9651  157.4721 C.3     1  UNL1        0.1067
     13 N         143.9662  133.0348  155.8569 N.3     1  UNL1       -0.2736
     14 C         143.4590  132.3211  154.6390 C.3     1  UNL1        0.0721
     15 C         143.9571  130.9071  154.6894 C.3     1  UNL1        0.0187
     16 C         144.7721  130.7469  155.9384 C.3     1  UNL1        0.0174
     17 C         144.7777  132.0619  156.6600 C.3     1  UNL1        0.0576
     18 C         145.4728  132.3530  157.9570 C.3     1  UNL1        0.0173
     19 N         140.7485  140.0948  161.6127 N.am    1  UNL1       -0.2806
     20 C         141.0237  141.5683  161.5579 C.2     1  UNL1        0.2493
     21 O         141.8636  142.1337  160.4512 O.2     1  UNL1       -0.2698
     22 H         140.1972  139.7237  162.3391 H       1  UNL1        0.1552
     23 C         140.4591  142.4764  162.6099 C.ar    1  UNL1        0.0520
     24 C         139.1172  143.1154  162.4075 C.ar    1  UNL1        0.0338
     25 C         138.5526  144.0234  163.4594 C.ar    1  UNL1        0.1403
     26 F         137.2106  144.6624  163.2570 F       1  UNL1       -0.2042
     27 C         139.3299  144.2926  164.7137 C.ar    1  UNL1        0.0293
     28 C         140.6718  143.6536  164.9161 C.ar    1  UNL1       -0.0018
     29 C         141.2364  142.7455  163.8642 C.ar    1  UNL1       -0.0173
     30 C         142.5783  142.1066  164.0666 C.3     1  UNL1        0.0312
@<TRIPOS>BOND
     1     1     2    1
     2     2     3   ar
     3     3     4   ar
     4     4     8    1
     5     8     9    1
     6     9    10    1
     7    10    11    1
     8    11    13    1
     9    13    14    1
    10    14    15    1
    11    15    16    1
    12    16    17    1
    13    17    18    1
    14    11    12    1
    15     4     5   ar
    16     5     6   ar
    17     6     7   ar
    18     7    19    1
    19    19    20   am
    20    20    21    2
    21    20    23    1
    22    23    24   ar
    23    24    25   ar
    24    25    26    1
    25    25    27   ar
    26    27    28   ar
    27    28    29   ar
    28    29    30    1
    29     7     2   ar
    30    29    23   ar
    31    12     8    1
    32    17    13    1
    33    19    22    1
@<TRIPOS>MOLECULE
*****
 30 33 0 0 0
SMALL
GASTEIGER

@<TRIPOS>ATOM
      1 C         139.5938  144.1447  165.0769 C.3     1  UNL1        0.0324
      2 C         140.2677  143.3547  163.9944 C.ar    1  UNL1       -0.0071
      3 C         140.3576  143.9117  162.6046 C.ar    1  UNL1        0.0115
      4 C         141.0315  143.1217  161.5221 C.ar    1  UNL1        0.0476
      5 C         141.6153  141.7746  161.8294 C.ar    1  UNL1        0.0158
      6 C         141.5253  141.2175  163.2191 C.ar    1  UNL1        0.0156
      7 C         140.8515  142.0076  164.3016 C.ar    1  UNL1        0.0466
      8 N         141.1214  143.6788  160.1322 N.pl3   1  UNL1       -0.3061
      9 C         142.3651  143.7732  159.2990 C.3     1  UNL1        0.0923
     10 C         141.9958  144.3920  157.9834 C.3     1  UNL1        0.0391
     11 C         140.5238  144.6801  158.0036 C.3     1  UNL1        0.0790
     12 C         139.9835  144.2392  159.3316 C.3     1  UNL1        0.1067
     13 N         139.7314  145.3001  156.8911 N.3     1  UNL1       -0.2736
     14 C         139.6699  146.7619  156.5609 C.3     1  UNL1        0.0721
     15 C         138.7618  146.9324  155.3792 C.3     1  UNL1        0.0187
     16 C         138.2621  145.5759  154.9792 C.3     1  UNL1        0.0174
     17 C         138.8614  144.5670  155.9136 C.3     1  UNL1        0.0576
     18 C         138.6310  143.0852  155.8769 C.3     1  UNL1        0.0173
     19 N         140.7615  141.4505  165.6915 N.am    1  UNL1       -0.2806
     20 C         141.8638  141.7081  166.6756 C.2     1  UNL1        0.2493
     21 O         143.0561  142.5229  166.2699 O.2     1  UNL1       -0.2698
     22 H         139.9790  140.9157  165.9578 H       1  UNL1        0.1552
     23 C         141.7739  141.1510  168.0654 C.ar    1  UNL1        0.0520
     24 C         142.3848  139.8177  168.3800 C.ar    1  UNL1        0.0338
     25 C         142.2949  139.2606  169.7697 C.ar    1  UNL1        0.1403
     26 F         142.9058  137.9272  170.0843 F       1  UNL1       -0.2042
     27 C         141.5940  140.0368  170.8450 C.ar    1  UNL1        0.0293
     28 C         140.9830  141.3701  170.5304 C.ar    1  UNL1       -0.0018
     29 C         141.0730  141.9272  169.1407 C.ar    1  UNL1       -0.0173
     30 C         140.4620  143.2606  168.8261 C.3     1  UNL1        0.0312
@<TRIPOS>BOND
     1     1     2    1
     2     2     3   ar
     3     3     4   ar
     4     4     8    1
     5     8     9    1
     6     9    10    1
     7    10    11    1
     8    11    13    1
     9    13    14    1
    10    14    15    1
    11    15    16    1
    12    16    17    1
    13    17    18    1
    14    11    12    1
    15     4     5   ar
    16     5     6   ar
    17     6     7   ar
    18     7    19    1
    19    19    20   am
    20    20    21    2
    21    20    23    1
    22    23    24   ar
    23    24    25   ar
    24    25    26    1
    25    25    27   ar
    26    27    28   ar
    27    28    29   ar
    28    29    30    1
    29     7     2   ar
    30    29    23   ar
    31    12     8    1
    32    17    13    1
    33    19    22    1
@<TRIPOS>MOLECULE
*****
 30 33 0 0 0
SMALL
GASTEIGER

@<TRIPOS>ATOM
      1 C         141.0761  137.2465  163.5250 C.3     1  UNL1        0.0324
      2 C         141.9807  138.1350  162.7236 C.ar    1  UNL1       -0.0071
      3 C         142.0483  137.9874  161.2324 C.ar    1  UNL1        0.0115
      4 C         142.9529  138.8759  160.4311 C.ar    1  UNL1        0.0476
      5 C         143.7899  139.9120  161.1208 C.ar    1  UNL1        0.0158
      6 C         143.7223  140.0596  162.6120 C.ar    1  UNL1        0.0156
      7 C         142.8177  139.1711  163.4134 C.ar    1  UNL1        0.0466
      8 N         143.0205  138.7283  158.9398 N.pl3   1  UNL1       -0.3061
      9 C         143.4548  139.7851  157.9680 C.3     1  UNL1        0.0923
     10 C         143.3683  139.2079  156.5862 C.3     1  UNL1        0.0391
     11 C         142.8805  137.7942  156.7040 C.3     1  UNL1        0.0790
     12 C         142.6656  137.4979  158.1587 C.3     1  UNL1        0.1067
     13 N         142.6485  136.8439  155.5669 N.3     1  UNL1       -0.2736
     14 C         141.9645  137.1687  154.2721 C.3     1  UNL1        0.0721
     15 C         141.9530  135.9275  153.4299 C.3     1  UNL1        0.0187
     16 C         142.6297  134.8356  154.2043 C.3     1  UNL1        0.0174
     17 C         143.0596  135.4020  155.5251 C.3     1  UNL1        0.0576
     18 C         143.7750  134.6572  156.6130 C.3     1  UNL1        0.0173
     19 N         142.7502  139.3187  164.9046 N.am    1  UNL1       -0.2806
     20 C         141.8522  140.3530  165.5160 C.2     1  UNL1        0.2493
     21 O         141.0217  141.2397  164.6361 O.2     1  UNL1       -0.2698
     22 H         143.2952  138.7367  165.4821 H       1  UNL1        0.1552
     23 C         141.7846  140.5006  167.0072 C.ar    1  UNL1        0.0520
     24 C         142.9508  141.0722  167.7579 C.ar    1  UNL1        0.0338
     25 C         142.8832  141.2198  169.2490 C.ar    1  UNL1        0.1403
     26 F         144.0494  141.7913  169.9997 F       1  UNL1       -0.2042
     27 C         141.6496  140.7959  169.9895 C.ar    1  UNL1        0.0293
     28 C         140.4835  140.2244  169.2388 C.ar    1  UNL1       -0.0018
     29 C         140.5510  140.0768  167.7477 C.ar    1  UNL1       -0.0173
     30 C         139.3848  139.5053  166.9970 C.3     1  UNL1        0.0312
@<TRIPOS>BOND
     1     1     2    1
     2     2     3   ar
     3     3     4   ar
     4     4     8    1
     5     8     9    1
     6     9    10    1
     7    10    11    1
     8    11    13    1
     9    13    14    1
    10    14    15    1
    11    15    16    1
    12    16    17    1
    13    17    18    1
    14    11    12    1
    15     4     5   ar
    16     5     6   ar
    17     6     7   ar
    18     7    19    1
    19    19    20   am
    20    20    21    2
    21    20    23    1
    22    23    24   ar
    23    24    25   ar
    24    25    26    1
    25    25    27   ar
    26    27    28   ar
    27    28    29   ar
    28    29    30    1
    29     7     2   ar
    30    29    23   ar
    31    12     8    1
    32    17    13    1
    33    19    22    1
@<TRIPOS>MOLECULE
*****
 30 33 0 0 0
SMALL
GASTEIGER

@<TRIPOS>ATOM
      1 C         139.6956  140.4173  159.7796 C.3     1  UNL1        0.0324
      2 C         139.3267  141.2085  160.9994 C.ar    1  UNL1       -0.0071
      3 C         139.3465  140.5569  162.3503 C.ar    1  UNL1        0.0115
      4 C         138.9776  141.3480  163.5701 C.ar    1  UNL1        0.0476
      5 C         138.5889  142.7908  163.4391 C.ar    1  UNL1        0.0158
      6 C         138.5692  143.4425  162.0882 C.ar    1  UNL1        0.0156
      7 C         138.9381  142.6513  160.8683 C.ar    1  UNL1        0.0466
      8 N         138.9973  140.6963  164.9211 N.pl3   1  UNL1       -0.3061
      9 C         138.1436  139.5422  165.3558 C.3     1  UNL1        0.0923
     10 C         138.4929  139.2170  166.7778 C.3     1  UNL1        0.0391
     11 C         139.5627  140.1701  167.2220 C.3     1  UNL1        0.0790
     12 C         139.8744  141.0844  166.0744 C.3     1  UNL1        0.1067
     13 N         140.2074  140.2032  168.5759 N.3     1  UNL1       -0.2736
     14 C         139.5357  140.5789  169.8634 C.3     1  UNL1        0.0721
     15 C         140.5502  140.4742  170.9633 C.3     1  UNL1        0.0187
     16 C         141.8489  140.0338  170.3556 C.3     1  UNL1        0.0174
     17 C         141.6371  139.8663  168.8801 C.3     1  UNL1        0.0576
     18 C         142.6730  139.4372  167.8837 C.3     1  UNL1        0.0173
     19 N         138.9183  143.3030  159.5174 N.am    1  UNL1       -0.2806
     20 C         140.1302  144.0330  159.0191 C.2     1  UNL1        0.2493
     21 O         141.3619  144.1115  159.8717 O.2     1  UNL1       -0.2698
     22 H         138.1100  143.2515  158.9578 H       1  UNL1        0.1552
     23 C         140.1104  144.6847  157.6681 C.ar    1  UNL1        0.0520
     24 C         139.7280  146.1293  157.5379 C.ar    1  UNL1        0.0338
     25 C         139.7082  146.7810  156.1870 C.ar    1  UNL1        0.1403
     26 F         139.3258  148.2256  156.0567 F       1  UNL1       -0.2042
     27 C         140.0709  145.9882  154.9665 C.ar    1  UNL1        0.0293
     28 C         140.4533  144.5436  155.0967 C.ar    1  UNL1       -0.0018
     29 C         140.4731  143.8919  156.4476 C.ar    1  UNL1       -0.0173
     30 C         140.8555  142.4473  156.5779 C.3     1  UNL1        0.0312
@<TRIPOS>BOND
     1     1     2    1
     2     2     3   ar
     3     3     4   ar
     4     4     8    1
     5     8     9    1
     6     9    10    1
     7    10    11    1
     8    11    13    1
     9    13    14    1
    10    14    15    1
    11    15    16    1
    12    16    17    1
    13    17    18    1
    14    11    12    1
    15     4     5   ar
    16     5     6   ar
    17     6     7   ar
    18     7    19    1
    19    19    20   am
    20    20    21    2
    21    20    23    1
    22    23    24   ar
    23    24    25   ar
    24    25    26    1
    25    25    27   ar
    26    27    28   ar
    27    28    29   ar
    28    29    30    1
    29     7     2   ar
    30    29    23   ar
    31    12     8    1
    32    17    13    1
    33    19    22    1
