@<TRIPOS>MOLECULE
*****
 49 53 0 0 0
SMALL
GASTEIGER

@<TRIPOS>ATOM
      1 C         140.2977  141.8074  158.7456 C.ar    1  UNL1        0.0375
      2 C         139.3383  141.6409  157.6046 C.ar    1  UNL1        0.1031
      3 N         138.9812  142.8185  156.7470 N.ar    1  UNL1       -0.2121
      4 C         139.5834  144.1628  157.0304 C.ar    1  UNL1        0.2200
      5 N         140.5428  144.3294  158.1714 N.ar    1  UNL1       -0.2163
      6 C         140.9000  143.1516  159.0290 C.ar    1  UNL1        0.0836
      7 C         141.6416  139.6137  159.1089 C.ar    1  UNL1        0.1387
      8 C         141.9987  138.4360  159.9665 C.ar    1  UNL1        0.0369
      9 C         141.3691  138.2743  161.3183 C.ar    1  UNL1        0.0031
     10 C         140.3824  139.2902  161.8126 C.ar    1  UNL1       -0.0001
     11 C         140.0253  140.4678  160.9550 C.ar    1  UNL1        0.0031
     12 C         140.6549  140.6296  159.6032 C.ar    1  UNL1        0.0367
     13 C         139.7528  139.1284  163.1644 C.ar    1  UNL1       -0.0039
     14 C         138.7079  140.1004  163.6263 C.ar    1  UNL1       -0.0003
     15 C         138.0783  139.9386  164.9781 C.ar    1  UNL1        0.0011
     16 C         138.4936  138.8048  165.8681 C.ar    1  UNL1        0.0137
     17 C         139.5384  137.8328  165.4061 C.ar    1  UNL1       -0.0031
     18 C         140.1680  137.9946  164.0543 C.ar    1  UNL1       -0.0218
     19 C         141.2129  137.0225  163.5924 C.3     1  UNL1        0.0310
     20 C         137.8640  138.6430  167.2199 C.2     1  UNL1        0.0729
     21 O         136.7152  137.6962  167.4038 O.co2   1  UNL1       -0.5446
     22 O         138.3831  139.4281  168.3878 O.co2   1  UNL1       -0.5446
     23 C         143.5457  140.5528  157.6115 C.3     1  UNL1        0.2525
     24 O         142.2712  139.7755  157.7571 O.3     1  UNL1       -0.4714
     25 N         139.2263  145.3405  156.1728 N.pl3   1  UNL1       -0.2747
     26 C         139.9824  146.6283  156.3145 C.3     1  UNL1        0.1151
     27 C         138.1130  145.2304  155.1736 C.3     1  UNL1        0.1151
     28 C         141.8594  143.3181  160.1700 C.3     1  UNL1        0.1428
     29 N         141.3660  143.2293  161.5838 N.am    1  UNL1       -0.2380
     30 C         140.2053  143.9837  162.1615 C.2     1  UNL1        0.4055
     31 O         139.3343  144.9592  161.4271 O.2     1  UNL1       -0.2262
     32 O         140.0687  143.5911  163.6029 O.3     1  UNL1       -0.4320
     33 C         141.1449  142.5941  163.9158 C.3     1  UNL1        0.2107
     34 C         141.9467  142.3705  162.6679 C.3     1  UNL1        0.1233
     35 C         143.1226  141.4499  162.5286 C.3     1  UNL1        0.0258
     36 C         141.3783  141.9363  165.2434 C.ar    1  UNL1        0.0189
     37 C         140.8040  142.5397  166.4908 C.ar    1  UNL1        0.0031
     38 C         141.0375  141.8819  167.8184 C.ar    1  UNL1        0.0712
     39 C         141.8452  140.6205  167.8987 C.ar    1  UNL1        0.0077
     40 C         142.4196  140.0170  166.6513 C.ar    1  UNL1        0.0712
     41 C         142.1861  140.6749  165.3237 C.ar    1  UNL1        0.0031
     42 C         140.4632  142.4854  169.0658 C.3     1  UNL1        0.4186
     43 F         139.8888  143.0889  170.3131 F       1  UNL1       -0.1659
     44 F         140.8171  141.2438  169.8294 F       1  UNL1       -0.1659
     45 F         140.1092  143.7271  168.3021 F       1  UNL1       -0.1659
     46 C         143.2274  138.7556  166.7317 C.3     1  UNL1        0.4186
     47 F         144.0351  137.4943  166.8120 F       1  UNL1       -0.1659
     48 F         142.9912  138.6986  168.2118 F       1  UNL1       -0.1659
     49 F         143.4636  138.8126  165.2515 F       1  UNL1       -0.1659
@<TRIPOS>UNITY_ATOM_ATTR
21 1
charge -1
@<TRIPOS>BOND
     1    23    24    1
     2    24     7    1
     3     7     8   ar
     4     8     9   ar
     5     9    10   ar
     6    10    13    1
     7    13    14   ar
     8    14    15   ar
     9    15    16   ar
    10    16    20    1
    11    20    21   ar
    12    20    22   ar
    13    16    17   ar
    14    17    18   ar
    15    18    19    1
    16    10    11   ar
    17    11    12   ar
    18    12     1    1
    19     1     2   ar
    20     2     3   ar
    21     3     4   ar
    22     4    25    1
    23    25    26    1
    24    25    27    1
    25     4     5   ar
    26     5     6   ar
    27     6    28    1
    28    28    29    1
    29    29    30   am
    30    30    31    2
    31    30    32    1
    32    32    33    1
    33    33    36    1
    34    36    37   ar
    35    37    38   ar
    36    38    42    1
    37    42    43    1
    38    42    44    1
    39    42    45    1
    40    38    39   ar
    41    39    40   ar
    42    40    46    1
    43    46    47    1
    44    46    48    1
    45    46    49    1
    46    40    41   ar
    47    33    34    1
    48    34    35    1
    49    12     7   ar
    50     6     1   ar
    51    34    29    1
    52    18    13   ar
    53    41    36   ar
@<TRIPOS>MOLECULE
*****
 49 53 0 0 0
SMALL
GASTEIGER

@<TRIPOS>ATOM
      1 C         140.3144  141.7853  158.8425 C.ar    1  UNL1        0.0375
      2 C         139.3715  141.5968  157.6913 C.ar    1  UNL1        0.1031
      3 N         139.0068  142.7635  156.8218 N.ar    1  UNL1       -0.2121
      4 C         139.5850  144.1186  157.1036 C.ar    1  UNL1        0.2200
      5 N         140.5280  144.3070  158.2549 N.ar    1  UNL1       -0.2163
      6 C         140.8926  143.1403  159.1243 C.ar    1  UNL1        0.0836
      7 C         141.7004  139.6247  159.2439 C.ar    1  UNL1        0.1387
      8 C         142.0651  138.4581  160.1133 C.ar    1  UNL1        0.0369
      9 C         141.4084  138.2853  161.4508 C.ar    1  UNL1        0.0031
     10 C         140.3870  139.2791  161.9189 C.ar    1  UNL1       -0.0001
     11 C         140.0224  140.4457  161.0494 C.ar    1  UNL1        0.0031
     12 C         140.6791  140.6185  159.7120 C.ar    1  UNL1        0.0367
     13 C         139.7303  139.1063  163.2564 C.ar    1  UNL1       -0.0039
     14 C         138.6885  140.0843  163.7123 C.ar    1  UNL1       -0.0003
     15 C         138.0317  139.9115  165.0498 C.ar    1  UNL1        0.0011
     16 C         138.4169  138.7607  165.9314 C.ar    1  UNL1        0.0137
     17 C         139.4588  137.7827  165.4754 C.ar    1  UNL1       -0.0031
     18 C         140.1155  137.9555  164.1379 C.ar    1  UNL1       -0.0218
     19 C         141.1575  136.9774  163.6820 C.3     1  UNL1        0.0310
     20 C         137.7602  138.5879  167.2688 C.2     1  UNL1        0.0729
     21 O         138.2558  139.3631  168.4535 O.co2   1  UNL1       -0.5446
     22 O         136.6079  137.6399  167.4217 O.co2   1  UNL1       -0.5446
     23 C         143.6802  140.4970  157.8053 C.3     1  UNL1        0.2525
     24 O         142.3571  139.7975  157.9064 O.3     1  UNL1       -0.4714
     25 N         139.2203  145.2852  156.2342 N.pl3   1  UNL1       -0.2747
     26 C         138.3974  145.0713  154.9985 C.3     1  UNL1        0.1151
     27 C         139.6785  146.6657  156.6006 C.3     1  UNL1        0.1151
     28 C         141.8356  143.3287  160.2756 C.3     1  UNL1        0.1428
     29 N         141.3261  143.2438  161.6839 N.am    1  UNL1       -0.2380
     30 C         140.1548  143.9946  162.2445 C.2     1  UNL1        0.4055
     31 O         139.2872  144.9620  161.4953 O.2     1  UNL1       -0.2262
     32 O         140.0033  143.6079  163.6860 O.3     1  UNL1       -0.4320
     33 C         141.0811  142.6182  164.0161 C.3     1  UNL1        0.2107
     34 C         141.8986  142.3932  162.7788 C.3     1  UNL1        0.1233
     35 C         143.0810  141.4782  162.6576 C.3     1  UNL1        0.0258
     36 C         141.3024  141.9678  165.3495 C.ar    1  UNL1        0.0189
     37 C         142.1229  140.7158  165.4464 C.ar    1  UNL1        0.0031
     38 C         142.3442  140.0654  166.7797 C.ar    1  UNL1        0.0712
     39 C         141.7451  140.6670  168.0163 C.ar    1  UNL1        0.0077
     40 C         140.9246  141.9190  167.9195 C.ar    1  UNL1        0.0712
     41 C         140.7033  142.5694  166.5861 C.ar    1  UNL1        0.0031
     42 C         143.1646  138.8134  166.8765 C.3     1  UNL1        0.4186
     43 F         143.9851  137.5615  166.9733 F       1  UNL1       -0.1659
     44 F         142.8968  138.7519  168.3511 F       1  UNL1       -0.1659
     45 F         143.4326  138.8749  165.4018 F       1  UNL1       -0.1659
     46 C         140.3255  142.5206  169.1561 C.3     1  UNL1        0.4186
     47 F         139.7264  143.1221  170.3927 F       1  UNL1       -0.1659
     48 F         140.5600  141.2361  169.8945 F       1  UNL1       -0.1659
     49 F         140.0910  143.8050  168.4177 F       1  UNL1       -0.1659
@<TRIPOS>UNITY_ATOM_ATTR
21 1
charge -1
@<TRIPOS>BOND
     1    23    24    1
     2    24     7    1
     3     7     8   ar
     4     8     9   ar
     5     9    10   ar
     6    10    13    1
     7    13    14   ar
     8    14    15   ar
     9    15    16   ar
    10    16    20    1
    11    20    21   ar
    12    20    22   ar
    13    16    17   ar
    14    17    18   ar
    15    18    19    1
    16    10    11   ar
    17    11    12   ar
    18    12     1    1
    19     1     2   ar
    20     2     3   ar
    21     3     4   ar
    22     4    25    1
    23    25    26    1
    24    25    27    1
    25     4     5   ar
    26     5     6   ar
    27     6    28    1
    28    28    29    1
    29    29    30   am
    30    30    31    2
    31    30    32    1
    32    32    33    1
    33    33    36    1
    34    36    37   ar
    35    37    38   ar
    36    38    42    1
    37    42    43    1
    38    42    44    1
    39    42    45    1
    40    38    39   ar
    41    39    40   ar
    42    40    46    1
    43    46    47    1
    44    46    48    1
    45    46    49    1
    46    40    41   ar
    47    33    34    1
    48    34    35    1
    49    12     7   ar
    50     6     1   ar
    51    34    29    1
    52    18    13   ar
    53    41    36   ar
@<TRIPOS>MOLECULE
*****
 49 53 0 0 0
SMALL
GASTEIGER

@<TRIPOS>ATOM
      1 C         140.9628  138.7810  158.4374 C.ar    1  UNL1        0.0375
      2 C         140.4091  137.7144  157.5397 C.ar    1  UNL1        0.1031
      3 N         141.3366  136.8727  156.7144 N.ar    1  UNL1       -0.2121
      4 C         142.8180  137.0974  156.7869 C.ar    1  UNL1        0.2200
      5 N         143.3717  138.1640  157.6846 N.ar    1  UNL1       -0.2163
      6 C         142.4440  139.0057  158.5099 C.ar    1  UNL1        0.0836
      7 C         139.3369  140.7969  158.6433 C.ar    1  UNL1        0.1387
      8 C         138.4093  141.6386  159.4686 C.ar    1  UNL1        0.0369
      9 C         138.1800  141.3061  160.9132 C.ar    1  UNL1        0.0031
     10 C         138.8783  140.1319  161.5325 C.ar    1  UNL1       -0.0001
     11 C         139.8059  139.2902  160.7073 C.ar    1  UNL1        0.0031
     12 C         140.0352  139.6227  159.2627 C.ar    1  UNL1        0.0367
     13 C         138.6490  139.7994  162.9771 C.ar    1  UNL1       -0.0039
     14 C         139.0741  138.4658  163.5164 C.ar    1  UNL1       -0.0003
     15 C         138.8448  138.1333  164.9610 C.ar    1  UNL1        0.0011
     16 C         138.1905  139.1344  165.8664 C.ar    1  UNL1        0.0137
     17 C         137.7654  140.4680  165.3271 C.ar    1  UNL1       -0.0031
     18 C         137.9947  140.8005  163.8825 C.ar    1  UNL1       -0.0218
     19 C         137.5696  142.1341  163.3432 C.3     1  UNL1        0.0310
     20 C         137.9612  138.8019  167.3110 C.2     1  UNL1        0.0729
     21 O         136.8922  137.8220  167.6945 O.co2   1  UNL1       -0.5446
     22 O         138.8008  139.4493  168.3720 O.co2   1  UNL1       -0.5446
     23 C         138.5831  140.6774  156.1599 C.3     1  UNL1        0.2525
     24 O         139.5662  141.1294  157.1987 O.3     1  UNL1       -0.4714
     25 N         143.7455  136.2557  155.9616 N.pl3   1  UNL1       -0.2747
     26 C         143.7472  134.7642  156.1216 C.3     1  UNL1        0.1151
     27 C         144.6713  136.9054  154.9764 C.3     1  UNL1        0.1151
     28 C         142.9978  140.0723  159.4076 C.3     1  UNL1        0.1428
     29 N         142.9210  139.9131  160.8972 N.am    1  UNL1       -0.2380
     30 C         143.3804  138.7196  161.6811 C.2     1  UNL1        0.4055
     31 O         143.9971  137.4757  161.1131 O.2     1  UNL1       -0.2262
     32 O         143.1148  138.9883  163.1328 O.3     1  UNL1       -0.4320
     33 C         142.4912  140.3479  163.2460 C.3     1  UNL1        0.2107
     34 C         142.3715  140.9194  161.8643 C.3     1  UNL1        0.1233
     35 C         141.8023  142.2616  161.5116 C.3     1  UNL1        0.0258
     36 C         142.0627  141.0183  164.5175 C.ar    1  UNL1        0.0189
     37 C         141.1174  142.1820  164.4703 C.ar    1  UNL1        0.0031
     38 C         140.6889  142.8523  165.7418 C.ar    1  UNL1        0.0712
     39 C         141.2056  142.3590  167.0607 C.ar    1  UNL1        0.0077
     40 C         142.1510  141.1952  167.1081 C.ar    1  UNL1        0.0712
     41 C         142.5795  140.5249  165.8364 C.ar    1  UNL1        0.0031
     42 C         139.7436  144.0159  165.6945 C.3     1  UNL1        0.4186
     43 F         138.7983  145.1796  165.6472 F       1  UNL1       -0.1659
     44 F         139.9307  144.1076  164.2090 F       1  UNL1       -0.1659
     45 F         139.5564  143.9244  167.1800 F       1  UNL1       -0.1659
     46 C         142.6677  140.7019  168.4270 C.3     1  UNL1        0.4186
     47 F         143.1845  140.2086  169.7460 F       1  UNL1       -0.1659
     48 F         142.0106  139.3749  168.1882 F       1  UNL1       -0.1659
     49 F         143.3249  142.0290  168.6659 F       1  UNL1       -0.1659
@<TRIPOS>UNITY_ATOM_ATTR
21 1
charge -1
@<TRIPOS>BOND
     1    23    24    1
     2    24     7    1
     3     7     8   ar
     4     8     9   ar
     5     9    10   ar
     6    10    13    1
     7    13    14   ar
     8    14    15   ar
     9    15    16   ar
    10    16    20    1
    11    20    21   ar
    12    20    22   ar
    13    16    17   ar
    14    17    18   ar
    15    18    19    1
    16    10    11   ar
    17    11    12   ar
    18    12     1    1
    19     1     2   ar
    20     2     3   ar
    21     3     4   ar
    22     4    25    1
    23    25    26    1
    24    25    27    1
    25     4     5   ar
    26     5     6   ar
    27     6    28    1
    28    28    29    1
    29    29    30   am
    30    30    31    2
    31    30    32    1
    32    32    33    1
    33    33    36    1
    34    36    37   ar
    35    37    38   ar
    36    38    42    1
    37    42    43    1
    38    42    44    1
    39    42    45    1
    40    38    39   ar
    41    39    40   ar
    42    40    46    1
    43    46    47    1
    44    46    48    1
    45    46    49    1
    46    40    41   ar
    47    33    34    1
    48    34    35    1
    49    12     7   ar
    50     6     1   ar
    51    34    29    1
    52    18    13   ar
    53    41    36   ar
@<TRIPOS>MOLECULE
*****
 49 53 0 0 0
SMALL
GASTEIGER

@<TRIPOS>ATOM
      1 C         140.6549  138.7396  158.2665 C.ar    1  UNL1        0.0375
      2 C         139.9947  137.7940  157.3073 C.ar    1  UNL1        0.1031
      3 N         140.8309  136.9117  156.4286 N.ar    1  UNL1       -0.2121
      4 C         142.3274  136.9748  156.5091 C.ar    1  UNL1        0.2200
      5 N         142.9877  137.9204  157.4683 N.ar    1  UNL1       -0.2163
      6 C         142.1514  138.8028  158.3470 C.ar    1  UNL1        0.0836
      7 C         139.1930  140.8639  158.5829 C.ar    1  UNL1        0.1387
      8 C         138.3568  141.7462  159.4616 C.ar    1  UNL1        0.0369
      9 C         138.1461  141.3866  160.9026 C.ar    1  UNL1        0.0031
     10 C         138.7716  140.1446  161.4648 C.ar    1  UNL1       -0.0001
     11 C         139.6079  139.2623  160.5861 C.ar    1  UNL1        0.0031
     12 C         139.8186  139.6220  159.1452 C.ar    1  UNL1        0.0367
     13 C         138.5610  139.7850  162.9057 C.ar    1  UNL1       -0.0039
     14 C         138.9111  138.4108  163.3947 C.ar    1  UNL1       -0.0003
     15 C         138.7004  138.0512  164.8356 C.ar    1  UNL1        0.0011
     16 C         138.1396  139.0656  165.7876 C.ar    1  UNL1        0.0137
     17 C         137.7895  140.4398  165.2986 C.ar    1  UNL1       -0.0031
     18 C         138.0002  140.7994  163.8577 C.ar    1  UNL1       -0.0218
     19 C         137.6500  142.1737  163.3687 C.3     1  UNL1        0.0310
     20 C         137.9289  138.7060  167.2285 C.2     1  UNL1        0.0729
     21 O         136.8966  137.6843  167.6033 O.co2   1  UNL1       -0.5446
     22 O         138.7505  139.3680  168.2946 O.co2   1  UNL1       -0.5446
     23 C         138.3217  140.9597  156.1372 C.3     1  UNL1        0.2525
     24 O         139.4037  141.2236  157.1420 O.3     1  UNL1       -0.4714
     25 N         143.1637  136.0925  155.6304 N.pl3   1  UNL1       -0.2747
     26 C         144.5642  136.4969  155.2769 C.3     1  UNL1        0.1151
     27 C         142.5994  134.8057  155.1053 C.3     1  UNL1        0.1151
     28 C         142.8116  139.7483  159.3061 C.3     1  UNL1        0.1428
     29 N         142.7626  139.4767  160.7806 N.am    1  UNL1       -0.2380
     30 C         143.1855  138.2067  161.4576 C.2     1  UNL1        0.4055
     31 O         143.7318  136.9855  160.7792 O.2     1  UNL1       -0.2262
     32 O         142.9663  138.3724  162.9323 O.3     1  UNL1       -0.4320
     33 C         142.4079  139.7448  163.1665 C.3     1  UNL1        0.2107
     34 C         142.2820  140.4272  161.8367 C.3     1  UNL1        0.1233
     35 C         141.7661  141.8163  161.6039 C.3     1  UNL1        0.0258
     36 C         142.0400  140.3316  164.4970 C.ar    1  UNL1        0.0189
     37 C         142.4454  139.6349  165.7620 C.ar    1  UNL1        0.0031
     38 C         142.0775  140.2218  167.0925 C.ar    1  UNL1        0.0712
     39 C         141.3042  141.5054  167.1580 C.ar    1  UNL1        0.0077
     40 C         140.8987  142.2022  165.8930 C.ar    1  UNL1        0.0712
     41 C         141.2667  141.6152  164.5625 C.ar    1  UNL1        0.0031
     42 C         142.4830  139.5251  168.3574 C.3     1  UNL1        0.4186
     43 F         142.8884  138.8283  169.6224 F       1  UNL1       -0.1659
     44 F         143.3023  138.5541  167.5600 F       1  UNL1       -0.1659
     45 F         141.6636  140.4961  169.1549 F       1  UNL1       -0.1659
     46 C         140.1254  143.4858  165.9585 C.3     1  UNL1        0.4186
     47 F         139.3520  144.7694  166.0240 F       1  UNL1       -0.1659
     48 F         139.9929  143.3301  167.4445 F       1  UNL1       -0.1659
     49 F         140.2579  143.6415  164.4725 F       1  UNL1       -0.1659
@<TRIPOS>UNITY_ATOM_ATTR
21 1
charge -1
@<TRIPOS>BOND
     1    23    24    1
     2    24     7    1
     3     7     8   ar
     4     8     9   ar
     5     9    10   ar
     6    10    13    1
     7    13    14   ar
     8    14    15   ar
     9    15    16   ar
    10    16    20    1
    11    20    21   ar
    12    20    22   ar
    13    16    17   ar
    14    17    18   ar
    15    18    19    1
    16    10    11   ar
    17    11    12   ar
    18    12     1    1
    19     1     2   ar
    20     2     3   ar
    21     3     4   ar
    22     4    25    1
    23    25    26    1
    24    25    27    1
    25     4     5   ar
    26     5     6   ar
    27     6    28    1
    28    28    29    1
    29    29    30   am
    30    30    31    2
    31    30    32    1
    32    32    33    1
    33    33    36    1
    34    36    37   ar
    35    37    38   ar
    36    38    42    1
    37    42    43    1
    38    42    44    1
    39    42    45    1
    40    38    39   ar
    41    39    40   ar
    42    40    46    1
    43    46    47    1
    44    46    48    1
    45    46    49    1
    46    40    41   ar
    47    33    34    1
    48    34    35    1
    49    12     7   ar
    50     6     1   ar
    51    34    29    1
    52    18    13   ar
    53    41    36   ar
@<TRIPOS>MOLECULE
*****
 49 53 0 0 0
SMALL
GASTEIGER

@<TRIPOS>ATOM
      1 C         141.0755  138.8212  158.1556 C.ar    1  UNL1        0.0375
      2 C         140.1531  137.9197  157.3898 C.ar    1  UNL1        0.1031
      3 N         140.7155  136.8931  156.4519 N.ar    1  UNL1       -0.2121
      4 C         142.2004  136.7680  156.2797 C.ar    1  UNL1        0.2200
      5 N         143.1228  137.6695  157.0455 N.ar    1  UNL1       -0.2163
      6 C         142.5603  138.6961  157.9835 C.ar    1  UNL1        0.0836
      7 C         140.2656  141.2471  158.6131 C.ar    1  UNL1        0.1387
      8 C         139.7032  142.2736  159.5511 C.ar    1  UNL1        0.0369
      9 C         139.3882  141.9010  160.9695 C.ar    1  UNL1        0.0031
     10 C         139.6356  140.5017  161.4499 C.ar    1  UNL1       -0.0001
     11 C         140.1981  139.4752  160.5120 C.ar    1  UNL1        0.0031
     12 C         140.5131  139.8479  159.0936 C.ar    1  UNL1        0.0367
     13 C         139.3206  140.1291  162.8683 C.ar    1  UNL1       -0.0039
     14 C         138.7305  138.7851  163.1773 C.ar    1  UNL1       -0.0003
     15 C         138.4155  138.4124  164.5957 C.ar    1  UNL1        0.0011
     16 C         138.6906  139.3837  165.7052 C.ar    1  UNL1        0.0137
     17 C         139.2807  140.7276  165.3962 C.ar    1  UNL1       -0.0031
     18 C         139.5957  141.1003  163.9778 C.ar    1  UNL1       -0.0218
     19 C         140.1859  142.4444  163.6688 C.3     1  UNL1        0.0310
     20 C         138.3756  139.0110  167.1236 C.2     1  UNL1        0.0729
     21 O         139.1049  139.6757  168.2533 O.co2   1  UNL1       -0.5446
     22 O         137.3314  137.9737  167.4122 O.co2   1  UNL1       -0.5446
     23 C         141.6121  142.6700  156.9066 C.3     1  UNL1        0.2525
     24 O         140.5806  141.6198  157.1947 O.3     1  UNL1       -0.4714
     25 N         142.7628  135.7414  155.3418 N.pl3   1  UNL1       -0.2747
     26 C         142.2818  135.6788  153.9224 C.3     1  UNL1        0.1151
     27 C         143.8062  134.7773  155.8232 C.3     1  UNL1        0.1151
     28 C         143.4827  139.5976  158.7493 C.3     1  UNL1        0.1428
     29 N         143.5791  139.4793  160.2416 N.am    1  UNL1       -0.2380
     30 C         143.8484  138.2198  161.0105 C.2     1  UNL1        0.4055
     31 O         144.0686  136.8576  160.4223 O.2     1  UNL1       -0.2262
     32 O         143.8588  138.5617  162.4710 O.3     1  UNL1       -0.4320
     33 C         143.5959  140.0325  162.6046 C.3     1  UNL1        0.2107
     34 C         143.4231  140.5996  161.2267 C.3     1  UNL1        0.1233
     35 C         143.1433  142.0348  160.8927 C.3     1  UNL1        0.0258
     36 C         143.5193  140.8012  163.8903 C.ar    1  UNL1        0.0189
     37 C         143.9129  142.2483  163.9237 C.ar    1  UNL1        0.0031
     38 C         143.8364  143.0170  165.2093 C.ar    1  UNL1        0.0712
     39 C         143.3662  142.3387  166.4619 C.ar    1  UNL1        0.0077
     40 C         142.9726  140.8916  166.4287 C.ar    1  UNL1        0.0712
     41 C         143.0492  140.1229  165.1429 C.ar    1  UNL1        0.0031
     42 C         144.2299  144.4641  165.2426 C.3     1  UNL1        0.4186
     43 F         144.6235  145.9111  165.2758 F       1  UNL1       -0.1659
     44 F         143.1213  144.7876  164.2855 F       1  UNL1       -0.1659
     45 F         145.3387  144.1406  166.1998 F       1  UNL1       -0.1659
     46 C         142.5025  140.2133  167.6812 C.3     1  UNL1        0.4186
     47 F         142.0323  139.5350  168.9338 F       1  UNL1       -0.1659
     48 F         141.8797  139.1249  166.8581 F       1  UNL1       -0.1659
     49 F         143.1253  141.3016  168.5044 F       1  UNL1       -0.1659
@<TRIPOS>UNITY_ATOM_ATTR
21 1
charge -1
@<TRIPOS>BOND
     1    23    24    1
     2    24     7    1
     3     7     8   ar
     4     8     9   ar
     5     9    10   ar
     6    10    13    1
     7    13    14   ar
     8    14    15   ar
     9    15    16   ar
    10    16    20    1
    11    20    21   ar
    12    20    22   ar
    13    16    17   ar
    14    17    18   ar
    15    18    19    1
    16    10    11   ar
    17    11    12   ar
    18    12     1    1
    19     1     2   ar
    20     2     3   ar
    21     3     4   ar
    22     4    25    1
    23    25    26    1
    24    25    27    1
    25     4     5   ar
    26     5     6   ar
    27     6    28    1
    28    28    29    1
    29    29    30   am
    30    30    31    2
    31    30    32    1
    32    32    33    1
    33    33    36    1
    34    36    37   ar
    35    37    38   ar
    36    38    42    1
    37    42    43    1
    38    42    44    1
    39    42    45    1
    40    38    39   ar
    41    39    40   ar
    42    40    46    1
    43    46    47    1
    44    46    48    1
    45    46    49    1
    46    40    41   ar
    47    33    34    1
    48    34    35    1
    49    12     7   ar
    50     6     1   ar
    51    34    29    1
    52    18    13   ar
    53    41    36   ar
@<TRIPOS>MOLECULE
*****
 49 53 0 0 0
SMALL
GASTEIGER

@<TRIPOS>ATOM
      1 C         142.1584  142.6091  159.1277 C.ar    1  UNL1        0.0375
      2 C         143.0928  143.4883  158.3505 C.ar    1  UNL1        0.1031
      3 N         142.5442  144.5622  157.4584 N.ar    1  UNL1       -0.2121
      4 C         141.0613  144.7569  157.3435 C.ar    1  UNL1        0.2200
      5 N         140.1270  143.8777  158.1208 N.ar    1  UNL1       -0.2163
      6 C         140.6756  142.8038  159.0129 C.ar    1  UNL1        0.0836
      7 C         143.2538  140.2719  159.4240 C.ar    1  UNL1        0.1387
      8 C         143.8024  139.1980  160.3161 C.ar    1  UNL1        0.0369
      9 C         143.8042  139.3875  161.8041 C.ar    1  UNL1        0.0031
     10 C         143.2574  140.6508  162.3999 C.ar    1  UNL1       -0.0001
     11 C         142.7088  141.7246  161.5078 C.ar    1  UNL1        0.0031
     12 C         142.7071  141.5352  160.0198 C.ar    1  UNL1        0.0367
     13 C         143.2592  140.8402  163.8879 C.ar    1  UNL1       -0.0039
     14 C         142.7981  139.7306  164.7858 C.ar    1  UNL1       -0.0003
     15 C         142.7999  139.9201  166.2738 C.ar    1  UNL1        0.0011
     16 C         143.2628  141.2191  166.8639 C.ar    1  UNL1        0.0137
     17 C         143.7239  142.3286  165.9660 C.ar    1  UNL1       -0.0031
     18 C         143.7221  142.1392  164.4781 C.ar    1  UNL1       -0.0218
     19 C         144.1833  143.2488  163.5802 C.3     1  UNL1        0.0310
     20 C         143.2646  141.4085  168.3519 C.2     1  UNL1        0.0729
     21 O         143.4841  142.7734  168.9339 O.co2   1  UNL1       -0.5446
     22 O         143.0469  140.2330  169.2579 O.co2   1  UNL1       -0.5446
     23 C         142.8002  138.7793  157.3464 C.3     1  UNL1        0.2525
     24 O         143.2520  140.0824  157.9360 O.3     1  UNL1       -0.4714
     25 N         140.5128  145.8308  156.4515 N.pl3   1  UNL1       -0.2747
     26 C         140.9446  145.9073  155.0170 C.3     1  UNL1        0.1151
     27 C         139.5324  146.8281  156.9938 C.3     1  UNL1        0.1151
     28 C         139.7413  141.9246  159.7901 C.3     1  UNL1        0.1428
     29 N         139.5244  142.1696  161.2540 N.am    1  UNL1       -0.2380
     30 C         139.2659  143.5003  161.8963 C.2     1  UNL1        0.4055
     31 O         139.1790  144.8195  161.1876 O.2     1  UNL1       -0.2262
     32 O         139.1096  143.2802  163.3719 O.3     1  UNL1       -0.4320
     33 C         139.2715  141.8135  163.6414 C.3     1  UNL1        0.2107
     34 C         139.5278  141.1271  162.3325 C.3     1  UNL1        0.1233
     35 C         139.7488  139.6566  162.1365 C.3     1  UNL1        0.0258
     36 C         139.1911  141.1497  164.9841 C.ar    1  UNL1        0.0189
     37 C         138.6138  139.7706  165.1057 C.ar    1  UNL1        0.0031
     38 C         138.5335  139.1068  166.4483 C.ar    1  UNL1        0.0712
     39 C         139.0304  139.8221  167.6695 C.ar    1  UNL1        0.0077
     40 C         139.6077  141.2012  167.5481 C.ar    1  UNL1        0.0712
     41 C         139.6881  141.8650  166.2053 C.ar    1  UNL1        0.0031
     42 C         137.9561  137.7277  166.5698 C.3     1  UNL1        0.4186
     43 F         137.3788  136.3486  166.6913 F       1  UNL1       -0.1659
     44 F         138.8424  137.2584  165.4544 F       1  UNL1       -0.1659
     45 F         137.0698  138.1970  167.6853 F       1  UNL1       -0.1659
     46 C         140.1047  141.9165  168.7693 C.3     1  UNL1        0.4186
     47 F         140.6016  142.6318  169.9905 F       1  UNL1       -0.1659
     48 F         140.4290  143.1189  167.9331 F       1  UNL1       -0.1659
     49 F         139.7804  140.7142  169.6055 F       1  UNL1       -0.1659
@<TRIPOS>UNITY_ATOM_ATTR
21 1
charge -1
@<TRIPOS>BOND
     1    23    24    1
     2    24     7    1
     3     7     8   ar
     4     8     9   ar
     5     9    10   ar
     6    10    13    1
     7    13    14   ar
     8    14    15   ar
     9    15    16   ar
    10    16    20    1
    11    20    21   ar
    12    20    22   ar
    13    16    17   ar
    14    17    18   ar
    15    18    19    1
    16    10    11   ar
    17    11    12   ar
    18    12     1    1
    19     1     2   ar
    20     2     3   ar
    21     3     4   ar
    22     4    25    1
    23    25    26    1
    24    25    27    1
    25     4     5   ar
    26     5     6   ar
    27     6    28    1
    28    28    29    1
    29    29    30   am
    30    30    31    2
    31    30    32    1
    32    32    33    1
    33    33    36    1
    34    36    37   ar
    35    37    38   ar
    36    38    42    1
    37    42    43    1
    38    42    44    1
    39    42    45    1
    40    38    39   ar
    41    39    40   ar
    42    40    46    1
    43    46    47    1
    44    46    48    1
    45    46    49    1
    46    40    41   ar
    47    33    34    1
    48    34    35    1
    49    12     7   ar
    50     6     1   ar
    51    34    29    1
    52    18    13   ar
    53    41    36   ar
@<TRIPOS>MOLECULE
*****
 49 53 0 0 0
SMALL
GASTEIGER

@<TRIPOS>ATOM
      1 C         140.8753  138.8780  158.2140 C.ar    1  UNL1        0.0375
      2 C         139.9041  138.0303  157.4473 C.ar    1  UNL1        0.1031
      3 N         140.4082  136.9969  156.4840 N.ar    1  UNL1       -0.2121
      4 C         141.8837  136.8113  156.2874 C.ar    1  UNL1        0.2200
      5 N         142.8550  137.6591  157.0542 N.ar    1  UNL1       -0.2163
      6 C         142.3507  138.6925  158.0175 C.ar    1  UNL1        0.0836
      7 C         140.1634  141.3249  158.7203 C.ar    1  UNL1        0.1387
      8 C         139.6592  142.3582  159.6836 C.ar    1  UNL1        0.0369
      9 C         139.3627  141.9780  161.1040 C.ar    1  UNL1        0.0031
     10 C         139.5703  140.5645  161.5611 C.ar    1  UNL1       -0.0001
     11 C         140.0745  139.5312  160.5978 C.ar    1  UNL1        0.0031
     12 C         140.3711  139.9114  159.1774 C.ar    1  UNL1        0.0367
     13 C         139.2737  140.1843  162.9815 C.ar    1  UNL1       -0.0039
     14 C         138.7043  138.8320  163.2926 C.ar    1  UNL1       -0.0003
     15 C         138.4077  138.4518  164.7130 C.ar    1  UNL1        0.0011
     16 C         138.6806  139.4240  165.8222 C.ar    1  UNL1        0.0137
     17 C         139.2500  140.7763  165.5111 C.ar    1  UNL1       -0.0031
     18 C         139.5466  141.1565  164.0907 C.ar    1  UNL1       -0.0218
     19 C         140.1161  142.5089  163.7795 C.3     1  UNL1        0.0310
     20 C         138.3840  139.0438  167.2426 C.2     1  UNL1        0.0729
     21 O         137.3587  137.9897  167.5384 O.co2   1  UNL1       -0.5446
     22 O         139.1127  139.7178  168.3672 O.co2   1  UNL1       -0.5446
     23 C         141.7147  142.4586  156.9715 C.3     1  UNL1        0.2525
     24 O         140.4600  141.7051  157.2999 O.3     1  UNL1       -0.4714
     25 N         142.3879  135.7780  155.3241 N.pl3   1  UNL1       -0.2747
     26 C         143.6904  135.0814  155.5852 C.3     1  UNL1        0.1151
     27 C         141.5895  135.4412  154.0997 C.3     1  UNL1        0.1151
     28 C         143.3220  139.5402  158.7843 C.3     1  UNL1        0.1428
     29 N         143.4007  139.4261  160.2779 N.am    1  UNL1       -0.2380
     30 C         143.5773  138.1565  161.0570 C.2     1  UNL1        0.4055
     31 O         143.7060  136.7782  160.4793 O.2     1  UNL1       -0.2262
     32 O         143.6024  138.5073  162.5152 O.3     1  UNL1       -0.4320
     33 C         143.4414  139.9936  162.6373 C.3     1  UNL1        0.2107
     34 C         143.3167  140.5615  161.2546 C.3     1  UNL1        0.1233
     35 C         143.1393  142.0103  160.9091 C.3     1  UNL1        0.0258
     36 C         143.4104  140.7749  163.9173 C.ar    1  UNL1        0.0189
     37 C         142.9830  140.1097  165.1920 C.ar    1  UNL1        0.0031
     38 C         142.9520  140.8909  166.4720 C.ar    1  UNL1        0.0712
     39 C         143.3486  142.3376  166.4775 C.ar    1  UNL1        0.0077
     40 C         143.7761  143.0029  165.2028 C.ar    1  UNL1        0.0712
     41 C         143.8070  142.2215  163.9228 C.ar    1  UNL1        0.0031
     42 C         142.5246  140.2256  167.7466 C.3     1  UNL1        0.4186
     43 F         142.0971  139.5603  169.0212 F       1  UNL1       -0.1659
     44 F         143.1928  141.3111  168.5373 F       1  UNL1       -0.1659
     45 F         141.8562  139.1401  166.9559 F       1  UNL1       -0.1659
     46 C         144.1726  144.4495  165.2083 C.3     1  UNL1        0.4186
     47 F         144.5692  145.8962  165.2138 F       1  UNL1       -0.1659
     48 F         143.0274  144.7669  164.2931 F       1  UNL1       -0.1659
     49 F         145.3179  144.1321  166.1236 F       1  UNL1       -0.1659
@<TRIPOS>UNITY_ATOM_ATTR
21 1
charge -1
@<TRIPOS>BOND
     1    23    24    1
     2    24     7    1
     3     7     8   ar
     4     8     9   ar
     5     9    10   ar
     6    10    13    1
     7    13    14   ar
     8    14    15   ar
     9    15    16   ar
    10    16    20    1
    11    20    21   ar
    12    20    22   ar
    13    16    17   ar
    14    17    18   ar
    15    18    19    1
    16    10    11   ar
    17    11    12   ar
    18    12     1    1
    19     1     2   ar
    20     2     3   ar
    21     3     4   ar
    22     4    25    1
    23    25    26    1
    24    25    27    1
    25     4     5   ar
    26     5     6   ar
    27     6    28    1
    28    28    29    1
    29    29    30   am
    30    30    31    2
    31    30    32    1
    32    32    33    1
    33    33    36    1
    34    36    37   ar
    35    37    38   ar
    36    38    42    1
    37    42    43    1
    38    42    44    1
    39    42    45    1
    40    38    39   ar
    41    39    40   ar
    42    40    46    1
    43    46    47    1
    44    46    48    1
    45    46    49    1
    46    40    41   ar
    47    33    34    1
    48    34    35    1
    49    12     7   ar
    50     6     1   ar
    51    34    29    1
    52    18    13   ar
    53    41    36   ar
@<TRIPOS>MOLECULE
*****
 49 53 0 0 0
SMALL
GASTEIGER

@<TRIPOS>ATOM
      1 C         141.0672  141.8136  158.4425 C.ar    1  UNL1        0.0375
      2 C         142.0008  142.4479  157.4546 C.ar    1  UNL1        0.1031
      3 N         141.5585  143.6452  156.6666 N.ar    1  UNL1       -0.2121
      4 C         140.1826  144.2082  156.8666 C.ar    1  UNL1        0.2200
      5 N         139.2490  143.5739  157.8546 N.ar    1  UNL1       -0.2163
      6 C         139.6913  142.3766  158.6425 C.ar    1  UNL1        0.0836
      7 C         141.7271  139.3026  158.5400 C.ar    1  UNL1        0.1387
      8 C         142.1695  138.1054  159.3280 C.ar    1  UNL1        0.0369
      9 C         142.3941  138.2218  160.8065 C.ar    1  UNL1        0.0031
     10 C         142.1765  139.5355  161.4970 C.ar    1  UNL1       -0.0001
     11 C         141.7342  140.7327  160.7090 C.ar    1  UNL1        0.0031
     12 C         141.5095  140.6163  159.2305 C.ar    1  UNL1        0.0367
     13 C         142.4012  139.6519  162.9755 C.ar    1  UNL1       -0.0039
     14 C         143.1026  140.8539  163.5351 C.ar    1  UNL1       -0.0003
     15 C         143.3273  140.9703  165.0136 C.ar    1  UNL1        0.0011
     16 C         142.8506  139.8848  165.9325 C.ar    1  UNL1        0.0137
     17 C         142.1492  138.6828  165.3728 C.ar    1  UNL1       -0.0031
     18 C         141.9245  138.5664  163.8943 C.ar    1  UNL1       -0.0218
     19 C         141.2231  137.3643  163.3347 C.3     1  UNL1        0.0310
     20 C         143.0753  140.0012  167.4110 C.2     1  UNL1        0.0729
     21 O         143.1004  138.7685  168.2652 O.co2   1  UNL1       -0.5446
     22 O         143.2749  141.3504  168.0353 O.co2   1  UNL1       -0.5446
     23 C         142.6350  138.7946  156.1593 C.3     1  UNL1        0.2525
     24 O         141.5025  139.1862  157.0615 O.3     1  UNL1       -0.4714
     25 N         139.7404  145.4055  156.0787 N.pl3   1  UNL1       -0.2747
     26 C         139.6845  146.7545  156.7321 C.3     1  UNL1        0.1151
     27 C         139.3539  145.2537  154.6373 C.3     1  UNL1        0.1151
     28 C         138.7578  141.7423  159.6305 C.3     1  UNL1        0.1428
     29 N         138.9278  142.0038  161.0978 N.am    1  UNL1       -0.2380
     30 C         139.2106  143.3347  161.7291 C.2     1  UNL1        0.4055
     31 O         139.3731  144.6378  161.0041 O.2     1  UNL1       -0.2262
     32 O         139.3024  143.1338  163.2128 O.3     1  UNL1       -0.4320
     33 C         139.0763  141.6787  163.4983 C.3     1  UNL1        0.2107
     34 C         138.8448  140.9803  162.1912 C.3     1  UNL1        0.1233
     35 C         138.5772  139.5156  162.0093 C.3     1  UNL1        0.0258
     36 C         139.0810  141.0350  164.8531 C.ar    1  UNL1        0.0189
     37 C         139.6713  141.7601  166.0261 C.ar    1  UNL1        0.0031
     38 C         139.6760  141.1164  167.3808 C.ar    1  UNL1        0.0712
     39 C         139.0902  139.7475  167.5628 C.ar    1  UNL1        0.0077
     40 C         138.4999  139.0223  166.3899 C.ar    1  UNL1        0.0712
     41 C         138.4953  139.6661  165.0351 C.ar    1  UNL1        0.0031
     42 C         140.2663  141.8415  168.5537 C.3     1  UNL1        0.4186
     43 F         140.8566  142.5666  169.7266 F       1  UNL1       -0.1659
     44 F         140.2431  140.5711  169.3508 F       1  UNL1       -0.1659
     45 F         140.2895  143.1120  167.7566 F       1  UNL1       -0.1659
     46 C         137.9142  137.6534  166.5719 C.3     1  UNL1        0.4186
     47 F         137.3285  136.2845  166.7539 F       1  UNL1       -0.1659
     48 F         138.8002  137.1293  165.4809 F       1  UNL1       -0.1659
     49 F         137.0282  138.1776  167.6629 F       1  UNL1       -0.1659
@<TRIPOS>UNITY_ATOM_ATTR
21 1
charge -1
@<TRIPOS>BOND
     1    23    24    1
     2    24     7    1
     3     7     8   ar
     4     8     9   ar
     5     9    10   ar
     6    10    13    1
     7    13    14   ar
     8    14    15   ar
     9    15    16   ar
    10    16    20    1
    11    20    21   ar
    12    20    22   ar
    13    16    17   ar
    14    17    18   ar
    15    18    19    1
    16    10    11   ar
    17    11    12   ar
    18    12     1    1
    19     1     2   ar
    20     2     3   ar
    21     3     4   ar
    22     4    25    1
    23    25    26    1
    24    25    27    1
    25     4     5   ar
    26     5     6   ar
    27     6    28    1
    28    28    29    1
    29    29    30   am
    30    30    31    2
    31    30    32    1
    32    32    33    1
    33    33    36    1
    34    36    37   ar
    35    37    38   ar
    36    38    42    1
    37    42    43    1
    38    42    44    1
    39    42    45    1
    40    38    39   ar
    41    39    40   ar
    42    40    46    1
    43    46    47    1
    44    46    48    1
    45    46    49    1
    46    40    41   ar
    47    33    34    1
    48    34    35    1
    49    12     7   ar
    50     6     1   ar
    51    34    29    1
    52    18    13   ar
    53    41    36   ar
@<TRIPOS>MOLECULE
*****
 49 53 0 0 0
SMALL
GASTEIGER

@<TRIPOS>ATOM
      1 C         140.9880  141.6701  158.2714 C.ar    1  UNL1        0.0375
      2 C         141.8882  142.3085  157.2555 C.ar    1  UNL1        0.1031
      3 N         141.4048  143.4836  156.4583 N.ar    1  UNL1       -0.2121
      4 C         140.0213  144.0203  156.6771 C.ar    1  UNL1        0.2200
      5 N         139.1211  143.3819  157.6931 N.ar    1  UNL1       -0.2163
      6 C         139.6046  142.2067  158.4902 C.ar    1  UNL1        0.0836
      7 C         141.7330  139.1838  158.3884 C.ar    1  UNL1        0.1387
      8 C         142.2164  138.0087  159.1856 C.ar    1  UNL1        0.0369
      9 C         142.4382  138.1447  160.6628 C.ar    1  UNL1        0.0031
     10 C         142.1766  139.4558  161.3430 C.ar    1  UNL1       -0.0001
     11 C         141.6932  140.6309  160.5458 C.ar    1  UNL1        0.0031
     12 C         141.4714  140.4949  159.0685 C.ar    1  UNL1        0.0367
     13 C         142.3984  139.5918  162.8202 C.ar    1  UNL1       -0.0039
     14 C         143.1258  140.7863  163.3626 C.ar    1  UNL1       -0.0003
     15 C         143.3476  140.9223  164.8399 C.ar    1  UNL1        0.0011
     16 C         142.8420  139.8638  165.7747 C.ar    1  UNL1        0.0137
     17 C         142.1147  138.6694  165.2324 C.ar    1  UNL1       -0.0031
     18 C         141.8929  138.5334  163.7551 C.ar    1  UNL1       -0.0218
     19 C         141.1655  137.3388  163.2127 C.3     1  UNL1        0.0310
     20 C         143.0638  139.9998  167.2520 C.2     1  UNL1        0.0729
     21 O         143.1451  138.7750  168.1141 O.co2   1  UNL1       -0.5446
     22 O         143.2044  141.3606  167.8672 O.co2   1  UNL1       -0.5446
     23 C         142.6584  138.7004  156.0094 C.3     1  UNL1        0.2525
     24 O         141.5112  139.0478  156.9112 O.3     1  UNL1       -0.4714
     25 N         139.5379  145.1954  155.8800 N.pl3   1  UNL1       -0.2747
     26 C         140.4463  146.3653  155.6425 C.3     1  UNL1        0.1151
     27 C         138.1463  145.2007  155.3204 C.3     1  UNL1        0.1151
     28 C         138.7044  141.5683  159.5061 C.3     1  UNL1        0.1428
     29 N         138.8817  141.8755  160.9637 N.am    1  UNL1       -0.2380
     30 C         139.1635  143.2262  161.5520 C.2     1  UNL1        0.4055
     31 O         139.3175  144.5068  160.7862 O.2     1  UNL1       -0.2262
     32 O         139.2643  143.0715  163.0406 O.3     1  UNL1       -0.4320
     33 C         139.0448  141.6251  163.3722 C.3     1  UNL1        0.2107
     34 C         138.8083  140.8860  162.0886 C.3     1  UNL1        0.1233
     35 C         138.5448  139.4156  161.9535 C.3     1  UNL1        0.0258
     36 C         139.0592  141.0236  164.7462 C.ar    1  UNL1        0.0189
     37 C         138.4786  139.6594  164.9739 C.ar    1  UNL1        0.0031
     38 C         138.4929  139.0578  166.3478 C.ar    1  UNL1        0.0712
     39 C         139.0880  139.8205  167.4942 C.ar    1  UNL1        0.0077
     40 C         139.6686  141.1847  167.2667 C.ar    1  UNL1        0.0712
     41 C         139.6542  141.7862  165.8926 C.ar    1  UNL1        0.0031
     42 C         137.9123  137.6936  166.5754 C.3     1  UNL1        0.4186
     43 F         137.3317  136.3294  166.8030 F       1  UNL1       -0.1659
     44 F         137.0499  138.2437  167.6724 F       1  UNL1       -0.1659
     45 F         138.7748  137.1435  165.4783 F       1  UNL1       -0.1659
     46 C         140.2636  141.9474  168.4131 C.3     1  UNL1        0.4186
     47 F         140.8586  142.7100  169.5596 F       1  UNL1       -0.1659
     48 F         140.3574  143.1709  167.5505 F       1  UNL1       -0.1659
     49 F         140.1698  140.7238  169.2757 F       1  UNL1       -0.1659
@<TRIPOS>UNITY_ATOM_ATTR
21 1
charge -1
@<TRIPOS>BOND
     1    23    24    1
     2    24     7    1
     3     7     8   ar
     4     8     9   ar
     5     9    10   ar
     6    10    13    1
     7    13    14   ar
     8    14    15   ar
     9    15    16   ar
    10    16    20    1
    11    20    21   ar
    12    20    22   ar
    13    16    17   ar
    14    17    18   ar
    15    18    19    1
    16    10    11   ar
    17    11    12   ar
    18    12     1    1
    19     1     2   ar
    20     2     3   ar
    21     3     4   ar
    22     4    25    1
    23    25    26    1
    24    25    27    1
    25     4     5   ar
    26     5     6   ar
    27     6    28    1
    28    28    29    1
    29    29    30   am
    30    30    31    2
    31    30    32    1
    32    32    33    1
    33    33    36    1
    34    36    37   ar
    35    37    38   ar
    36    38    42    1
    37    42    43    1
    38    42    44    1
    39    42    45    1
    40    38    39   ar
    41    39    40   ar
    42    40    46    1
    43    46    47    1
    44    46    48    1
    45    46    49    1
    46    40    41   ar
    47    33    34    1
    48    34    35    1
    49    12     7   ar
    50     6     1   ar
    51    34    29    1
    52    18    13   ar
    53    41    36   ar
