@<TRIPOS>MOLECULE
*****
 30 32 0 0 0
SMALL
GASTEIGER

@<TRIPOS>ATOM
      1 C         138.7898  138.8738  165.8960 C.3     1  UNL1        0.0337
      2 C         139.0308  140.3430  165.7135 C.3     1  UNL1        0.1467
      3 N         138.0158  140.2132  164.6167 N.am    1  UNL1       -0.2806
      4 C         137.8312  141.5651  163.9937 C.2     1  UNL1        0.3106
      5 O         136.9078  141.8939  162.8583 O.2     1  UNL1       -0.2521
      6 N         138.7321  142.5304  164.7053 N.am    1  UNL1       -0.2053
      7 C         139.4735  141.7751  165.7683 C.2     1  UNL1        0.2527
      8 O         140.4808  142.3509  166.7190 O.2     1  UNL1       -0.2723
      9 H         137.5522  139.3859  164.3523 H       1  UNL1        0.1516
     10 C         139.9954  140.1656  166.8485 C.ar    1  UNL1        0.0021
     11 C         141.4356  139.8546  166.5671 C.ar    1  UNL1       -0.0009
     12 C         142.4001  139.6772  167.7020 C.ar    1  UNL1        0.0196
     13 C         141.9245  139.8109  169.1184 C.ar    1  UNL1        0.1217
     14 C         140.4844  140.1219  169.3997 C.ar    1  UNL1        0.0196
     15 C         139.5198  140.2993  168.2648 C.ar    1  UNL1       -0.0009
     16 S         142.8892  139.6335  170.2533 S.O2    1  UNL1        0.0572
     17 N         143.8537  139.4562  171.3882 N.3     1  UNL1       -0.2035
     18 O         142.9938  138.1712  169.9360 O.2     1  UNL1       -0.1532
     19 O         142.7846  141.0958  170.5707 O.2     1  UNL1       -0.1532
     20 H         144.1394  138.4785  171.4420 H       1  UNL1        0.1442
     21 H         143.4037  139.7275  172.2625 H       1  UNL1        0.1442
     22 C         138.8677  143.9941  164.4065 C.3     1  UNL1        0.1667
     23 C         139.5215  144.4420  163.1329 C.2     1  UNL1        0.1707
     24 O         138.6841  144.9649  162.0036 O.2     1  UNL1       -0.2943
     25 C         141.0127  144.3671  162.9887 C.3     1  UNL1        0.0594
     26 C         141.6233  143.4317  161.9877 C.3     1  UNL1        0.0074
     27 C         143.1145  143.3568  161.8435 C.3     1  UNL1        0.0004
     28 C         143.9950  144.2172  162.7003 C.3     1  UNL1        0.0000
     29 C         143.3844  145.1526  163.7013 C.3     1  UNL1        0.0004
     30 C         141.8933  145.2276  163.8456 C.3     1  UNL1        0.0074
@<TRIPOS>BOND
     1     1     2    1
     2     2    10    1
     3    10    11   ar
     4    11    12   ar
     5    12    13   ar
     6    13    16    1
     7    16    17    1
     8    16    18    2
     9    16    19    2
    10    13    14   ar
    11    14    15   ar
    12     2     3    1
    13     3     4   am
    14     4     5    2
    15     4     6   am
    16     6    22    1
    17    22    23    1
    18    23    24    2
    19    23    25    1
    20    25    26    1
    21    26    27    1
    22    27    28    1
    23    28    29    1
    24    29    30    1
    25     6     7   am
    26     7     8    2
    27     7     2    1
    28    15    10   ar
    29    30    25    1
    30    17    20    1
    31    17    21    1
    32     3     9    1
@<TRIPOS>MOLECULE
*****
 30 32 0 0 0
SMALL
GASTEIGER

@<TRIPOS>ATOM
      1 C         138.8250  138.9244  165.8763 C.3     1  UNL1        0.0337
      2 C         139.0511  140.3991  165.7216 C.3     1  UNL1        0.1467
      3 N         138.0447  140.2781  164.6160 N.am    1  UNL1       -0.2806
      4 C         137.8494  141.6389  164.0160 C.2     1  UNL1        0.3106
      5 O         136.9298  141.9781  162.8806 O.2     1  UNL1       -0.2521
      6 N         138.7351  142.6010  164.7507 N.am    1  UNL1       -0.2053
      7 C         139.4778  141.8347  165.8049 C.2     1  UNL1        0.2527
      8 O         140.4727  142.4042  166.7724 O.2     1  UNL1       -0.2723
      9 H         137.5918  139.4508  164.3338 H       1  UNL1        0.1516
     10 C         140.0104  140.2118  166.8596 C.ar    1  UNL1        0.0021
     11 C         139.5198  140.2913  168.2748 C.ar    1  UNL1       -0.0009
     12 C         140.4790  140.1040  169.4127 C.ar    1  UNL1        0.0196
     13 C         141.9287  139.8372  169.1354 C.ar    1  UNL1        0.1217
     14 C         142.4193  139.7577  167.7201 C.ar    1  UNL1        0.0196
     15 C         141.4601  139.9450  166.5822 C.ar    1  UNL1       -0.0009
     16 S         142.8880  139.6499  170.2733 S.O2    1  UNL1        0.0572
     17 N         143.8471  139.4627  171.4112 N.3     1  UNL1       -0.2035
     18 O         142.9994  138.1918  169.9395 O.2     1  UNL1       -0.1532
     19 O         142.7765  141.1080  170.6072 O.2     1  UNL1       -0.1532
     20 H         144.1359  138.4854  171.4551 H       1  UNL1        0.1442
     21 H         143.3915  139.7222  172.2862 H       1  UNL1        0.1442
     22 C         138.8567  144.0711  164.4790 C.3     1  UNL1        0.1667
     23 C         139.5012  144.5487  163.2115 C.2     1  UNL1        0.1707
     24 O         138.6618  145.1512  162.1241 O.2     1  UNL1       -0.2943
     25 C         140.9851  144.4238  163.0314 C.3     1  UNL1        0.0594
     26 C         141.5398  143.4650  162.0200 C.3     1  UNL1        0.0074
     27 C         143.0237  143.3401  161.8400 C.3     1  UNL1        0.0004
     28 C         143.9529  144.1740  162.6712 C.3     1  UNL1        0.0000
     29 C         143.3982  145.1329  163.6826 C.3     1  UNL1        0.0004
     30 C         141.9144  145.2578  163.8627 C.3     1  UNL1        0.0074
@<TRIPOS>BOND
     1     1     2    1
     2     2    10    1
     3    10    11   ar
     4    11    12   ar
     5    12    13   ar
     6    13    16    1
     7    16    17    1
     8    16    18    2
     9    16    19    2
    10    13    14   ar
    11    14    15   ar
    12     2     3    1
    13     3     4   am
    14     4     5    2
    15     4     6   am
    16     6    22    1
    17    22    23    1
    18    23    24    2
    19    23    25    1
    20    25    26    1
    21    26    27    1
    22    27    28    1
    23    28    29    1
    24    29    30    1
    25     6     7   am
    26     7     8    2
    27     7     2    1
    28    15    10   ar
    29    30    25    1
    30    17    20    1
    31    17    21    1
    32     3     9    1
@<TRIPOS>MOLECULE
*****
 30 32 0 0 0
SMALL
GASTEIGER

@<TRIPOS>ATOM
      1 C         143.5540  138.5665  166.1583 C.3     1  UNL1        0.0337
      2 C         142.1521  139.0207  165.8784 C.3     1  UNL1        0.1467
      3 N         142.1756  137.9367  164.8419 N.am    1  UNL1       -0.2806
      4 C         140.8446  137.9277  164.1503 C.2     1  UNL1        0.3106
      5 O         140.4321  137.0027  163.0439 O.2     1  UNL1       -0.2521
      6 N         139.9984  139.0061  164.7594 N.am    1  UNL1       -0.2053
      7 C         140.8065  139.6816  165.8275 C.2     1  UNL1        0.2527
      8 O         140.3493  140.8185  166.6927 O.2     1  UNL1       -0.2723
      9 H         142.9319  137.3365  164.6493 H       1  UNL1        0.1516
     10 C         142.4217  140.0098  166.9735 C.ar    1  UNL1        0.0021
     11 C         142.2415  139.6086  168.4076 C.ar    1  UNL1       -0.0009
     12 C         142.5111  140.5976  169.5025 C.ar    1  UNL1        0.0196
     13 C         142.9609  141.9878  169.1635 C.ar    1  UNL1        0.1217
     14 C         143.1411  142.3890  167.7295 C.ar    1  UNL1        0.0196
     15 C         142.8715  141.4000  166.6345 C.ar    1  UNL1       -0.0009
     16 S         143.2305  142.9769  170.2586 S.O2    1  UNL1        0.0572
     17 N         143.5002  143.9659  171.3536 N.3     1  UNL1       -0.2035
     18 O         141.7623  143.0464  170.5574 O.2     1  UNL1       -0.1532
     19 O         144.6988  142.9074  169.9598 O.2     1  UNL1       -0.1532
     20 H         142.6200  144.2346  171.7934 H       1  UNL1        0.1442
     21 H         143.9508  144.7927  170.9616 H       1  UNL1        0.1442
     22 C         138.5913  139.3489  164.3691 C.3     1  UNL1        0.1667
     23 C         138.3315  140.4742  163.4119 C.2     1  UNL1        0.1707
     24 O         137.7088  140.1943  162.0763 O.2     1  UNL1       -0.2943
     25 C         138.6944  141.8796  163.7904 C.3     1  UNL1        0.0594
     26 C         140.0817  142.3902  163.5363 C.3     1  UNL1        0.0074
     27 C         140.4447  143.7956  163.9148 C.3     1  UNL1        0.0004
     28 C         139.4203  144.6903  164.5474 C.3     1  UNL1        0.0000
     29 C         138.0330  144.1796  164.8014 C.3     1  UNL1        0.0004
     30 C         137.6700  142.7744  164.4229 C.3     1  UNL1        0.0074
@<TRIPOS>BOND
     1     1     2    1
     2     2    10    1
     3    10    11   ar
     4    11    12   ar
     5    12    13   ar
     6    13    16    1
     7    16    17    1
     8    16    18    2
     9    16    19    2
    10    13    14   ar
    11    14    15   ar
    12     2     3    1
    13     3     4   am
    14     4     5    2
    15     4     6   am
    16     6    22    1
    17    22    23    1
    18    23    24    2
    19    23    25    1
    20    25    26    1
    21    26    27    1
    22    27    28    1
    23    28    29    1
    24    29    30    1
    25     6     7   am
    26     7     8    2
    27     7     2    1
    28    15    10   ar
    29    30    25    1
    30    17    20    1
    31    17    21    1
    32     3     9    1
@<TRIPOS>MOLECULE
*****
 30 32 0 0 0
SMALL
GASTEIGER

@<TRIPOS>ATOM
      1 C         139.2311  137.6228  164.9735 C.3     1  UNL1        0.0337
      2 C         138.8532  139.0234  164.5922 C.3     1  UNL1        0.1467
      3 N         138.5510  138.4104  163.2569 N.am    1  UNL1       -0.2806
      4 C         138.0660  139.4991  162.3462 C.2     1  UNL1        0.3106
      5 O         137.6513  139.3314  160.9145 O.2     1  UNL1       -0.2521
      6 N         138.0685  140.7849  163.1185 N.am    1  UNL1       -0.2053
      7 C         138.5550  140.4910  164.5066 C.2     1  UNL1        0.2527
      8 O         138.7152  141.4893  165.6147 O.2     1  UNL1       -0.2723
      9 H         138.6530  137.4603  163.0199 H       1  UNL1        0.1516
     10 C         139.2344  139.3436  166.0072 C.ar    1  UNL1        0.0021
     11 C         138.2127  139.2416  167.1006 C.ar    1  UNL1       -0.0009
     12 C         138.5940  139.5617  168.5155 C.ar    1  UNL1        0.0196
     13 C         139.9970  139.9839  168.8370 C.ar    1  UNL1        0.1217
     14 C         141.0187  140.0859  167.7436 C.ar    1  UNL1        0.0196
     15 C         140.6374  139.7658  166.3287 C.ar    1  UNL1       -0.0009
     16 S         140.3782  140.3041  170.2521 S.O2    1  UNL1        0.0572
     17 N         140.7595  140.6243  171.6670 N.3     1  UNL1       -0.2035
     18 O         139.0279  139.8477  170.7192 O.2     1  UNL1       -0.1532
     19 O         141.7286  140.7605  169.7849 O.2     1  UNL1       -0.1532
     20 H         139.9802  140.4042  172.2872 H       1  UNL1        0.1442
     21 H         140.9844  141.6163  171.7423 H       1  UNL1        0.1442
     22 C         137.6567  142.1288  162.5947 C.3     1  UNL1        0.1667
     23 C         138.5589  142.8777  161.6591 C.2     1  UNL1        0.1707
     24 O         138.2032  142.9940  160.2066 O.2     1  UNL1       -0.2943
     25 C         139.8170  143.5101  162.1761 C.3     1  UNL1        0.0594
     26 C         141.0922  143.3906  161.3955 C.3     1  UNL1        0.0074
     27 C         142.3502  144.0230  161.9125 C.3     1  UNL1        0.0004
     28 C         142.3331  144.7751  163.2102 C.3     1  UNL1        0.0000
     29 C         141.0579  144.8947  163.9909 C.3     1  UNL1        0.0004
     30 C         139.7998  144.2623  163.4739 C.3     1  UNL1        0.0074
@<TRIPOS>BOND
     1     1     2    1
     2     2    10    1
     3    10    11   ar
     4    11    12   ar
     5    12    13   ar
     6    13    16    1
     7    16    17    1
     8    16    18    2
     9    16    19    2
    10    13    14   ar
    11    14    15   ar
    12     2     3    1
    13     3     4   am
    14     4     5    2
    15     4     6   am
    16     6    22    1
    17    22    23    1
    18    23    24    2
    19    23    25    1
    20    25    26    1
    21    26    27    1
    22    27    28    1
    23    28    29    1
    24    29    30    1
    25     6     7   am
    26     7     8    2
    27     7     2    1
    28    15    10   ar
    29    30    25    1
    30    17    20    1
    31    17    21    1
    32     3     9    1
@<TRIPOS>MOLECULE
*****
 30 32 0 0 0
SMALL
GASTEIGER

@<TRIPOS>ATOM
      1 C         138.0924  140.9160  164.8797 C.3     1  UNL1        0.0337
      2 C         139.3401  140.0957  164.7374 C.3     1  UNL1        0.1467
      3 N         138.8272  139.8426  163.3508 N.am    1  UNL1       -0.2806
      4 C         139.8106  138.9546  162.6477 C.2     1  UNL1        0.3106
      5 O         139.6939  138.4508  161.2397 O.2     1  UNL1       -0.2521
      6 N         140.9313  138.6589  163.5998 N.am    1  UNL1       -0.2053
      7 C         140.6405  139.3641  164.8914 C.2     1  UNL1        0.2527
      8 O         141.4994  139.3417  166.1210 O.2     1  UNL1       -0.2723
      9 H         137.9918  140.1971  162.9691 H       1  UNL1        0.1516
     10 C         139.5922  140.5203  166.1539 C.ar    1  UNL1        0.0021
     11 C         140.3199  141.8015  166.4346 C.ar    1  UNL1       -0.0009
     12 C         140.5719  142.2261  167.8510 C.ar    1  UNL1        0.0196
     13 C         140.0962  141.3694  168.9867 C.ar    1  UNL1        0.1217
     14 C         139.3684  140.0882  168.7060 C.ar    1  UNL1        0.0196
     15 C         139.1164  139.6636  167.2896 C.ar    1  UNL1       -0.0009
     16 S         140.3482  141.7940  170.4031 S.O2    1  UNL1        0.0572
     17 N         140.6002  142.2187  171.8195 N.3     1  UNL1       -0.2035
     18 O         139.8333  140.4724  170.8910 O.2     1  UNL1       -0.1532
     19 O         140.8631  143.1157  169.9152 O.2     1  UNL1       -0.1532
     20 H         140.3273  141.4676  172.4533 H       1  UNL1        0.1442
     21 H         140.0528  143.0540  172.0265 H       1  UNL1        0.1442
     22 C         142.1320  137.8075  163.3111 C.3     1  UNL1        0.1667
     23 C         143.1553  138.2670  162.3152 C.2     1  UNL1        0.1707
     24 O         143.3553  137.5045  161.0390 O.2     1  UNL1       -0.2943
     25 C         143.9786  139.4891  162.5955 C.3     1  UNL1        0.0594
     26 C         144.7013  139.6228  163.9032 C.3     1  UNL1        0.0074
     27 C         145.5247  140.8449  164.1835 C.3     1  UNL1        0.0004
     28 C         145.6254  141.9333  163.1563 C.3     1  UNL1        0.0000
     29 C         144.9027  141.7996  161.8487 C.3     1  UNL1        0.0004
     30 C         144.0794  140.5776  161.5683 C.3     1  UNL1        0.0074
@<TRIPOS>BOND
     1     1     2    1
     2     2    10    1
     3    10    11   ar
     4    11    12   ar
     5    12    13   ar
     6    13    16    1
     7    16    17    1
     8    16    18    2
     9    16    19    2
    10    13    14   ar
    11    14    15   ar
    12     2     3    1
    13     3     4   am
    14     4     5    2
    15     4     6   am
    16     6    22    1
    17    22    23    1
    18    23    24    2
    19    23    25    1
    20    25    26    1
    21    26    27    1
    22    27    28    1
    23    28    29    1
    24    29    30    1
    25     6     7   am
    26     7     8    2
    27     7     2    1
    28    15    10   ar
    29    30    25    1
    30    17    20    1
    31    17    21    1
    32     3     9    1
@<TRIPOS>MOLECULE
*****
 30 32 0 0 0
SMALL
GASTEIGER

@<TRIPOS>ATOM
      1 C         141.1599  138.0487  164.9841 C.3     1  UNL1        0.0337
      2 C         141.5510  139.4651  164.6829 C.3     1  UNL1        0.1467
      3 N         141.6553  138.9700  163.2708 N.am    1  UNL1       -0.2806
      4 C         142.0719  140.1221  162.4053 C.2     1  UNL1        0.3106
      5 O         142.2959  140.0753  160.9229 O.2     1  UNL1       -0.2521
      6 N         142.2251  141.3292  163.2824 N.am    1  UNL1       -0.2053
      7 C         141.9032  140.9232  164.6900 C.2     1  UNL1        0.2527
      8 O         141.9289  141.8181  165.8936 O.2     1  UNL1       -0.2723
      9 H         141.4809  138.0504  162.9656 H       1  UNL1        0.1516
     10 C         141.3650  139.6641  166.1580 C.ar    1  UNL1        0.0021
     11 C         140.0278  140.0793  166.6960 C.ar    1  UNL1       -0.0009
     12 C         139.8418  140.2782  168.1710 C.ar    1  UNL1        0.0196
     13 C         140.9930  140.0619  169.1080 C.ar    1  UNL1        0.1217
     14 C         142.3302  139.6467  168.5700 C.ar    1  UNL1        0.0196
     15 C         142.5161  139.4478  167.0950 C.ar    1  UNL1       -0.0009
     16 S         140.8069  140.2609  170.5832 S.O2    1  UNL1        0.0572
     17 N         140.6209  140.4598  172.0582 N.3     1  UNL1       -0.2035
     18 O         142.2508  140.6457  170.7134 O.2     1  UNL1       -0.1532
     19 O         139.3631  139.8760  170.4529 O.2     1  UNL1       -0.1532
     20 H         141.5044  140.7516  172.4760 H       1  UNL1        0.1442
     21 H         140.3164  139.5842  172.4836 H       1  UNL1        0.1442
     22 C         142.6293  142.7014  162.8311 C.3     1  UNL1        0.1667
     23 C         141.5871  143.6759  162.3681 C.2     1  UNL1        0.1707
     24 O         141.8377  144.5224  161.1554 O.2     1  UNL1       -0.2943
     25 C         140.2943  143.8039  163.1179 C.3     1  UNL1        0.0594
     26 C         139.0610  143.1184  162.6088 C.3     1  UNL1        0.0074
     27 C         137.7682  143.2463  163.3586 C.3     1  UNL1        0.0004
     28 C         137.7085  144.0597  164.6174 C.3     1  UNL1        0.0000
     29 C         138.9418  144.7452  165.1265 C.3     1  UNL1        0.0004
     30 C         140.2346  144.6173  164.3768 C.3     1  UNL1        0.0074
@<TRIPOS>BOND
     1     1     2    1
     2     2    10    1
     3    10    11   ar
     4    11    12   ar
     5    12    13   ar
     6    13    16    1
     7    16    17    1
     8    16    18    2
     9    16    19    2
    10    13    14   ar
    11    14    15   ar
    12     2     3    1
    13     3     4   am
    14     4     5    2
    15     4     6   am
    16     6    22    1
    17    22    23    1
    18    23    24    2
    19    23    25    1
    20    25    26    1
    21    26    27    1
    22    27    28    1
    23    28    29    1
    24    29    30    1
    25     6     7   am
    26     7     8    2
    27     7     2    1
    28    15    10   ar
    29    30    25    1
    30    17    20    1
    31    17    21    1
    32     3     9    1
@<TRIPOS>MOLECULE
*****
 30 32 0 0 0
SMALL
GASTEIGER

@<TRIPOS>ATOM
      1 C         143.7738  143.5588  165.2125 C.3     1  UNL1        0.0337
      2 C         143.3754  142.1274  165.0071 C.3     1  UNL1        0.1467
      3 N         144.2426  142.2253  163.7871 N.am    1  UNL1       -0.2806
      4 C         144.2164  140.8965  163.0918 C.2     1  UNL1        0.3106
      5 O         144.9455  140.5481  161.8282 O.2     1  UNL1       -0.2521
      6 N         143.3329  139.9773  163.8820 N.am    1  UNL1       -0.2053
      7 C         142.8131  140.7380  165.0657 C.2     1  UNL1        0.2527
      8 O         141.8927  140.2032  166.1225 O.2     1  UNL1       -0.2723
      9 H         144.7415  143.0220  163.4942 H       1  UNL1        0.1516
     10 C         142.5914  142.3287  166.2700 C.ar    1  UNL1        0.0021
     11 C         141.1308  142.6628  166.2008 C.ar    1  UNL1       -0.0009
     12 C         140.3469  142.8641  167.4637 C.ar    1  UNL1        0.0196
     13 C         141.0236  142.7313  168.7958 C.ar    1  UNL1        0.1217
     14 C         142.4843  142.3972  168.8649 C.ar    1  UNL1        0.0196
     15 C         143.2682  142.1958  167.6020 C.ar    1  UNL1       -0.0009
     16 S         140.2396  142.9326  170.0587 S.O2    1  UNL1        0.0572
     17 N         139.4557  143.1340  171.3216 N.3     1  UNL1       -0.2035
     18 O         139.6006  141.5879  169.8765 O.2     1  UNL1       -0.1532
     19 O         140.8787  144.2774  170.2409 O.2     1  UNL1       -0.1532
     20 H         138.8684  142.3175  171.4910 H       1  UNL1        0.1442
     21 H         138.8678  143.9623  171.2284 H       1  UNL1        0.1442
     22 C         143.0235  138.5482  163.5472 C.3     1  UNL1        0.1667
     23 C         141.6669  138.1769  163.0259 C.2     1  UNL1        0.1707
     24 O         141.5398  137.4216  161.7362 O.2     1  UNL1       -0.2943
     25 C         140.4373  138.5608  163.7944 C.3     1  UNL1        0.0594
     26 C         139.7373  139.8528  163.4929 C.3     1  UNL1        0.0074
     27 C         138.5077  140.2367  164.2614 C.3     1  UNL1        0.0004
     28 C         137.9780  139.3288  165.3314 C.3     1  UNL1        0.0000
     29 C         138.6779  138.0368  165.6330 C.3     1  UNL1        0.0004
     30 C         139.9075  137.6528  164.8645 C.3     1  UNL1        0.0074
@<TRIPOS>BOND
     1     1     2    1
     2     2    10    1
     3    10    11   ar
     4    11    12   ar
     5    12    13   ar
     6    13    16    1
     7    16    17    1
     8    16    18    2
     9    16    19    2
    10    13    14   ar
    11    14    15   ar
    12     2     3    1
    13     3     4   am
    14     4     5    2
    15     4     6   am
    16     6    22    1
    17    22    23    1
    18    23    24    2
    19    23    25    1
    20    25    26    1
    21    26    27    1
    22    27    28    1
    23    28    29    1
    24    29    30    1
    25     6     7   am
    26     7     8    2
    27     7     2    1
    28    15    10   ar
    29    30    25    1
    30    17    20    1
    31    17    21    1
    32     3     9    1
@<TRIPOS>MOLECULE
*****
 30 32 0 0 0
SMALL
GASTEIGER

@<TRIPOS>ATOM
      1 C         143.4775  138.8052  165.9485 C.3     1  UNL1        0.0337
      2 C         143.2442  140.2341  165.5564 C.3     1  UNL1        0.1467
      3 N         144.3956  140.0015  164.6235 N.am    1  UNL1       -0.2806
      4 C         144.6434  141.2728  163.8670 C.2     1  UNL1        0.3106
      5 O         145.7033  141.4880  162.8277 O.2     1  UNL1       -0.2521
      6 N         143.6451  142.2911  164.3323 N.am    1  UNL1       -0.2053
      7 C         142.7804  141.6492  165.3764 C.2     1  UNL1        0.2527
      8 O         141.6502  142.3069  166.1114 O.2     1  UNL1       -0.2723
      9 H         144.9001  139.1619  164.5251 H       1  UNL1        0.1516
     10 C         142.1416  140.1679  166.5712 C.ar    1  UNL1        0.0021
     11 C         142.4356  140.4392  168.0169 C.ar    1  UNL1       -0.0009
     12 C         141.3329  140.3730  169.0316 C.ar    1  UNL1        0.0196
     13 C         139.9363  140.0356  168.6008 C.ar    1  UNL1        0.1217
     14 C         139.6424  139.7644  167.1551 C.ar    1  UNL1        0.0196
     15 C         140.7450  139.8306  166.1403 C.ar    1  UNL1       -0.0009
     16 S         138.8337  139.9694  169.6156 S.O2    1  UNL1        0.0572
     17 N         137.7311  139.9033  170.6304 N.3     1  UNL1       -0.2035
     18 O         138.0046  139.1610  168.6622 O.2     1  UNL1       -0.1532
     19 O         139.6627  140.7779  170.5690 O.2     1  UNL1       -0.1532
     20 H         136.9497  139.3700  170.2492 H       1  UNL1        0.1442
     21 H         137.4199  140.8480  170.8564 H       1  UNL1        0.1442
     22 C         143.5315  143.7035  163.8399 C.3     1  UNL1        0.1667
     23 C         142.5906  144.0336  162.7193 C.2     1  UNL1        0.1707
     24 O         143.1295  144.3456  161.3546 O.2     1  UNL1       -0.2943
     25 C         141.1107  144.0517  162.9634 C.3     1  UNL1        0.0594
     26 C         140.5523  144.8108  164.1304 C.3     1  UNL1        0.0074
     27 C         139.0724  144.8290  164.3745 C.3     1  UNL1        0.0004
     28 C         138.1509  144.0880  163.4517 C.3     1  UNL1        0.0000
     29 C         138.7093  143.3289  162.2846 C.3     1  UNL1        0.0004
     30 C         140.1891  143.3108  162.0405 C.3     1  UNL1        0.0074
@<TRIPOS>BOND
     1     1     2    1
     2     2    10    1
     3    10    11   ar
     4    11    12   ar
     5    12    13   ar
     6    13    16    1
     7    16    17    1
     8    16    18    2
     9    16    19    2
    10    13    14   ar
    11    14    15   ar
    12     2     3    1
    13     3     4   am
    14     4     5    2
    15     4     6   am
    16     6    22    1
    17    22    23    1
    18    23    24    2
    19    23    25    1
    20    25    26    1
    21    26    27    1
    22    27    28    1
    23    28    29    1
    24    29    30    1
    25     6     7   am
    26     7     8    2
    27     7     2    1
    28    15    10   ar
    29    30    25    1
    30    17    20    1
    31    17    21    1
    32     3     9    1
@<TRIPOS>MOLECULE
*****
 30 32 0 0 0
SMALL
GASTEIGER

@<TRIPOS>ATOM
      1 C         139.0950  137.6162  165.0213 C.3     1  UNL1        0.0337
      2 C         139.5335  138.7981  164.2084 C.3     1  UNL1        0.1467
      3 N         138.6649  138.1912  163.1467 N.am    1  UNL1       -0.2806
      4 C         138.7290  139.0733  161.9352 C.2     1  UNL1        0.3106
      5 O         138.0109  138.8436  160.6385 O.2     1  UNL1       -0.2521
      6 N         139.6372  140.2253  162.2480 N.am    1  UNL1       -0.2053
      7 C         140.1344  140.0553  163.6530 C.2     1  UNL1        0.2527
      8 O         141.0686  140.9800  164.3756 O.2     1  UNL1       -0.2723
      9 H         138.1441  137.3599  163.2304 H       1  UNL1        0.1516
     10 C         140.3105  139.1579  165.4401 C.ar    1  UNL1        0.0021
     11 C         139.6551  139.9424  166.5378 C.ar    1  UNL1       -0.0009
     12 C         140.4320  140.3022  167.7694 C.ar    1  UNL1        0.0196
     13 C         141.8644  139.8775  167.9032 C.ar    1  UNL1        0.1217
     14 C         142.5198  139.0930  166.8055 C.ar    1  UNL1        0.0196
     15 C         141.7428  138.7332  165.5739 C.ar    1  UNL1       -0.0009
     16 S         142.6414  140.2373  169.1349 S.O2    1  UNL1        0.0572
     17 N         143.4183  140.5971  170.3665 N.3     1  UNL1       -0.2035
     18 O         142.9692  138.7896  169.3510 O.2     1  UNL1       -0.1532
     19 O         142.3135  141.6849  168.9188 O.2     1  UNL1       -0.1532
     20 H         143.8046  139.7505  170.7842 H       1  UNL1        0.1442
     21 H         142.8006  141.0554  171.0364 H       1  UNL1        0.1442
     22 C         139.9868  141.3500  161.3191 C.3     1  UNL1        0.1667
     23 C         139.2060  142.6300  161.3640 C.2     1  UNL1        0.1707
     24 O         138.5777  143.1696  160.1133 O.2     1  UNL1       -0.2943
     25 C         139.0535  143.3704  162.6595 C.3     1  UNL1        0.0594
     26 C         140.1931  144.1845  163.1967 C.3     1  UNL1        0.0074
     27 C         140.0406  144.9249  164.4923 C.3     1  UNL1        0.0004
     28 C         138.7486  144.8512  165.2508 C.3     1  UNL1        0.0000
     29 C         137.6090  144.0371  164.7136 C.3     1  UNL1        0.0004
     30 C         137.7614  143.2967  163.4180 C.3     1  UNL1        0.0074
@<TRIPOS>BOND
     1     1     2    1
     2     2    10    1
     3    10    11   ar
     4    11    12   ar
     5    12    13   ar
     6    13    16    1
     7    16    17    1
     8    16    18    2
     9    16    19    2
    10    13    14   ar
    11    14    15   ar
    12     2     3    1
    13     3     4   am
    14     4     5    2
    15     4     6   am
    16     6    22    1
    17    22    23    1
    18    23    24    2
    19    23    25    1
    20    25    26    1
    21    26    27    1
    22    27    28    1
    23    28    29    1
    24    29    30    1
    25     6     7   am
    26     7     8    2
    27     7     2    1
    28    15    10   ar
    29    30    25    1
    30    17    20    1
    31    17    21    1
    32     3     9    1
