@<TRIPOS>MOLECULE
*****
 30 34 0 0 0
SMALL
GASTEIGER

@<TRIPOS>ATOM
      1 C         139.0490  138.9497  162.7421 C.ar    1  UNL1        0.0651
      2 C         138.5436  140.2077  163.3837 C.ar    1  UNL1        0.0177
      3 C         138.3004  140.2497  164.8632 C.ar    1  UNL1        0.0060
      4 C         138.5625  139.0336  165.7012 C.ar    1  UNL1        0.0537
      5 C         139.0679  137.7754  165.0597 C.ar    1  UNL1        0.0060
      6 C         139.3111  137.7334  163.5801 C.ar    1  UNL1        0.0177
      7 C         136.8997  139.7523  160.4213 C.3     1  UNL1        0.0722
      8 C         138.3043  139.2766  160.1958 C.ar    1  UNL1        0.1246
      9 N         138.9676  139.0863  158.8640 N.ar    1  UNL1       -0.2306
     10 C         140.3655  138.5997  159.1076 C.ar    1  UNL1        0.0986
     11 C         141.4815  138.2430  158.1711 C.ar    1  UNL1        0.0206
     12 C         142.7982  137.7758  158.7170 C.ar    1  UNL1        0.0016
     13 C         142.9988  137.6654  160.1994 C.ar    1  UNL1        0.0016
     14 C         141.8827  138.0222  161.1359 C.ar    1  UNL1        0.0191
     15 C         140.5661  138.4893  160.5900 C.ar    1  UNL1        0.0826
     16 N         139.2922  138.9077  161.2625 N.ar    1  UNL1       -0.2936
     17 C         138.3193  139.0756  167.1808 C.2     1  UNL1        0.2491
     18 O         137.2041  138.2715  167.7806 O.2     1  UNL1       -0.2699
     19 N         139.1912  139.9217  168.0605 N.am    1  UNL1       -0.2745
     20 C         138.9479  139.9637  169.5401 C.3     1  UNL1        0.1151
     21 C         140.3063  140.7258  167.4606 C.3     1  UNL1        0.0930
     22 C         140.5266  142.1987  167.6399 C.3     1  UNL1        0.0386
     23 C         141.7533  142.5814  166.8662 C.3     1  UNL1        0.0738
     24 N         142.2913  141.3451  166.2088 N.3     1  UNL1       -0.2725
     25 C         141.3970  140.1983  166.5762 C.3     1  UNL1        0.0921
     26 C         143.5096  141.2690  165.3372 C.3     1  UNL1        0.0575
     27 C         144.1017  140.0190  164.7566 C.3     1  UNL1        0.0160
     28 C         145.3079  140.4071  163.9536 C.3     1  UNL1        0.0014
     29 C         145.4611  141.8968  164.0380 C.3     1  UNL1        0.0014
     30 C         144.3498  142.4295  164.8930 C.3     1  UNL1        0.0160
@<TRIPOS>BOND
     1     7     8    1
     2     8     9   ar
     3     9    10   ar
     4    10    11   ar
     5    11    12   ar
     6    12    13   ar
     7    13    14   ar
     8    14    15   ar
     9    15    16   ar
    10    16     1    1
    11     1     2   ar
    12     2     3   ar
    13     3     4   ar
    14     4    17    1
    15    17    18    2
    16    17    19   am
    17    19    20    1
    18    21    19    1
    19    21    22    1
    20    22    23    1
    21    23    24    1
    22    24    26    1
    23    26    27    1
    24    27    28    1
    25    28    29    1
    26    29    30    1
    27    24    25    1
    28     4     5   ar
    29     5     6   ar
    30    16     8   ar
    31     6     1   ar
    32    15    10   ar
    33    25    21    1
    34    30    26    1
@<TRIPOS>MOLECULE
*****
 30 34 0 0 0
SMALL
GASTEIGER

@<TRIPOS>ATOM
      1 C         139.5062  139.4190  165.3838 C.ar    1  UNL1        0.0651
      2 C         140.4707  138.3526  164.9570 C.ar    1  UNL1        0.0177
      3 C         140.7109  138.0987  163.4983 C.ar    1  UNL1        0.0060
      4 C         139.9866  138.9113  162.4663 C.ar    1  UNL1        0.0537
      5 C         139.0219  139.9778  162.8931 C.ar    1  UNL1        0.0060
      6 C         138.7817  140.2317  164.3518 C.ar    1  UNL1        0.0177
      7 C         137.2513  137.9614  167.2387 C.3     1  UNL1        0.0722
      8 C         138.2295  139.0029  167.6951 C.ar    1  UNL1        0.1246
      9 N         138.3430  139.5573  169.0842 N.ar    1  UNL1       -0.2306
     10 C         139.4496  140.5700  169.0902 C.ar    1  UNL1        0.0986
     11 C         140.0115  141.4363  170.1782 C.ar    1  UNL1        0.0206
     12 C         141.1438  142.3739  169.8807 C.ar    1  UNL1        0.0016
     13 C         141.7142  142.4454  168.4953 C.ar    1  UNL1        0.0016
     14 C         141.1523  141.5791  167.4073 C.ar    1  UNL1        0.0191
     15 C         140.0200  140.6414  167.7047 C.ar    1  UNL1        0.0826
     16 N         139.2659  139.6729  166.8425 N.ar    1  UNL1       -0.2936
     17 C         140.2268  138.6574  161.0076 C.2     1  UNL1        0.2491
     18 O         139.2051  137.9162  160.1972 O.2     1  UNL1       -0.2699
     19 N         141.4886  139.1447  160.3594 N.am    1  UNL1       -0.2745
     20 C         141.7288  138.8908  158.9006 C.3     1  UNL1        0.1151
     21 C         142.5103  139.8859  161.1698 C.3     1  UNL1        0.0930
     22 C         143.9320  139.4642  161.3950 C.3     1  UNL1        0.0386
     23 C         144.5900  140.4965  162.2617 C.3     1  UNL1        0.0738
     24 N         143.5749  141.5563  162.5723 N.3     1  UNL1       -0.2725
     25 C         142.2895  141.1789  161.8974 C.3     1  UNL1        0.0921
     26 C         143.8048  142.7789  163.4104 C.3     1  UNL1        0.0575
     27 C         144.3792  142.8027  164.7959 C.3     1  UNL1        0.0160
     28 C         144.4300  144.2309  165.2520 C.3     1  UNL1        0.0014
     29 C         143.8870  145.0895  164.1484 C.3     1  UNL1        0.0014
     30 C         143.5006  144.1921  163.0103 C.3     1  UNL1        0.0160
@<TRIPOS>BOND
     1     7     8    1
     2     8     9   ar
     3     9    10   ar
     4    10    11   ar
     5    11    12   ar
     6    12    13   ar
     7    13    14   ar
     8    14    15   ar
     9    15    16   ar
    10    16     1    1
    11     1     2   ar
    12     2     3   ar
    13     3     4   ar
    14     4    17    1
    15    17    18    2
    16    17    19   am
    17    19    20    1
    18    21    19    1
    19    21    22    1
    20    22    23    1
    21    23    24    1
    22    24    26    1
    23    26    27    1
    24    27    28    1
    25    28    29    1
    26    29    30    1
    27    24    25    1
    28     4     5   ar
    29     5     6   ar
    30    16     8   ar
    31     6     1   ar
    32    15    10   ar
    33    25    21    1
    34    30    26    1
@<TRIPOS>MOLECULE
*****
 30 34 0 0 0
SMALL
GASTEIGER

@<TRIPOS>ATOM
      1 C         139.7416  142.4003  165.4156 C.ar    1  UNL1        0.0651
      2 C         138.4978  142.8206  164.6903 C.ar    1  UNL1        0.0177
      3 C         138.5944  143.7248  163.4973 C.ar    1  UNL1        0.0060
      4 C         139.9350  144.2088  163.0297 C.ar    1  UNL1        0.0537
      5 C         141.1789  143.7885  163.7550 C.ar    1  UNL1        0.0060
      6 C         141.0822  142.8842  164.9479 C.ar    1  UNL1        0.0177
      7 C         138.6075  139.3403  165.4162 C.3     1  UNL1        0.0722
      8 C         139.1237  140.0895  166.6087 C.ar    1  UNL1        0.1246
      9 N         139.2092  139.5638  168.0110 N.ar    1  UNL1       -0.2306
     10 C         139.7833  140.6454  168.8774 C.ar    1  UNL1        0.0986
     11 C         140.0956  140.6972  170.3435 C.ar    1  UNL1        0.0206
     12 C         140.6772  141.9431  170.9429 C.ar    1  UNL1        0.0016
     13 C         140.9465  143.1373  170.0761 C.ar    1  UNL1        0.0016
     14 C         140.6342  143.0856  168.6099 C.ar    1  UNL1        0.0191
     15 C         140.0526  141.8396  168.0105 C.ar    1  UNL1        0.0826
     16 N         139.6449  141.4960  166.6085 N.ar    1  UNL1       -0.2936
     17 C         140.0317  145.1130  161.8368 C.2     1  UNL1        0.2491
     18 O         139.9498  146.6002  162.0145 O.2     1  UNL1       -0.2699
     19 N         140.2101  144.5301  160.4663 N.am    1  UNL1       -0.2745
     20 C         140.3068  145.4344  159.2734 C.3     1  UNL1        0.1151
     21 C         140.2920  143.0429  160.2887 C.3     1  UNL1        0.0930
     22 C         139.1861  142.1501  159.8093 C.3     1  UNL1        0.0386
     23 C         139.7047  140.7428  159.7836 C.3     1  UNL1        0.0738
     24 N         141.1310  140.7658  160.2472 N.3     1  UNL1       -0.2725
     25 C         141.4940  142.1874  160.5594 C.3     1  UNL1        0.0921
     26 C         142.0356  139.5762  160.3760 C.3     1  UNL1        0.0575
     27 C         141.9953  138.3417  159.5249 C.3     1  UNL1        0.0160
     28 C         143.0741  137.4148  160.0015 C.3     1  UNL1        0.0014
     29 C         143.7810  138.0765  161.1471 C.3     1  UNL1        0.0014
     30 C         143.1391  139.4123  161.3786 C.3     1  UNL1        0.0160
@<TRIPOS>BOND
     1     7     8    1
     2     8     9   ar
     3     9    10   ar
     4    10    11   ar
     5    11    12   ar
     6    12    13   ar
     7    13    14   ar
     8    14    15   ar
     9    15    16   ar
    10    16     1    1
    11     1     2   ar
    12     2     3   ar
    13     3     4   ar
    14     4    17    1
    15    17    18    2
    16    17    19   am
    17    19    20    1
    18    21    19    1
    19    21    22    1
    20    22    23    1
    21    23    24    1
    22    24    26    1
    23    26    27    1
    24    27    28    1
    25    28    29    1
    26    29    30    1
    27    24    25    1
    28     4     5   ar
    29     5     6   ar
    30    16     8   ar
    31     6     1   ar
    32    15    10   ar
    33    25    21    1
    34    30    26    1
@<TRIPOS>MOLECULE
*****
 30 34 0 0 0
SMALL
GASTEIGER

@<TRIPOS>ATOM
      1 C         139.1565  139.8042  164.9451 C.ar    1  UNL1        0.0651
      2 C         139.3370  138.4898  164.2453 C.ar    1  UNL1        0.0177
      3 C         139.1253  138.3938  162.7634 C.ar    1  UNL1        0.0060
      4 C         138.7333  139.6122  161.9813 C.ar    1  UNL1        0.0537
      5 C         138.5528  140.9266  162.6810 C.ar    1  UNL1        0.0060
      6 C         138.7644  141.0227  164.1629 C.ar    1  UNL1        0.0177
      7 C         137.3618  138.3315  167.2385 C.3     1  UNL1        0.0722
      8 C         138.5432  139.2233  167.4811 C.ar    1  UNL1        0.1246
      9 N         139.1072  139.5948  168.8205 N.ar    1  UNL1       -0.2306
     10 C         140.2806  140.5014  168.5942 C.ar    1  UNL1        0.0986
     11 C         141.2230  141.1793  169.5439 C.ar    1  UNL1        0.0206
     12 C         142.3268  142.0461  169.0144 C.ar    1  UNL1        0.0016
     13 C         142.4881  142.2348  167.5351 C.ar    1  UNL1        0.0016
     14 C         141.5457  141.5569  166.5853 C.ar    1  UNL1        0.0191
     15 C         140.4419  140.6901  167.1149 C.ar    1  UNL1        0.0826
     16 N         139.3682  139.9003  166.4270 N.ar    1  UNL1       -0.2936
     17 C         138.5216  139.5161  160.4994 C.2     1  UNL1        0.2491
     18 O         137.1369  139.6165  159.9316 O.2     1  UNL1       -0.2699
     19 N         139.6947  139.3196  159.5854 N.am    1  UNL1       -0.2745
     20 C         139.4829  139.2236  158.1035 C.3     1  UNL1        0.1151
     21 C         141.0794  139.2192  160.1533 C.3     1  UNL1        0.0930
     22 C         142.0537  138.1053  159.9093 C.3     1  UNL1        0.0386
     23 C         143.3093  138.4127  160.6701 C.3     1  UNL1        0.0738
     24 N         143.1110  139.7167  161.3844 N.3     1  UNL1       -0.2725
     25 C         141.7328  140.2152  161.0650 C.3     1  UNL1        0.0921
     26 C         144.1146  140.4019  162.2637 C.3     1  UNL1        0.0575
     27 C         144.7842  141.7141  161.9810 C.3     1  UNL1        0.0160
     28 C         145.7083  142.0183  163.1228 C.3     1  UNL1        0.0014
     29 C         145.6098  140.8942  164.1110 C.3     1  UNL1        0.0014
     30 C         144.6249  139.8952  163.5801 C.3     1  UNL1        0.0160
@<TRIPOS>BOND
     1     7     8    1
     2     8     9   ar
     3     9    10   ar
     4    10    11   ar
     5    11    12   ar
     6    12    13   ar
     7    13    14   ar
     8    14    15   ar
     9    15    16   ar
    10    16     1    1
    11     1     2   ar
    12     2     3   ar
    13     3     4   ar
    14     4    17    1
    15    17    18    2
    16    17    19   am
    17    19    20    1
    18    21    19    1
    19    21    22    1
    20    22    23    1
    21    23    24    1
    22    24    26    1
    23    26    27    1
    24    27    28    1
    25    28    29    1
    26    29    30    1
    27    24    25    1
    28     4     5   ar
    29     5     6   ar
    30    16     8   ar
    31     6     1   ar
    32    15    10   ar
    33    25    21    1
    34    30    26    1
@<TRIPOS>MOLECULE
*****
 30 34 0 0 0
SMALL
GASTEIGER

@<TRIPOS>ATOM
      1 C         142.7877  139.9742  164.8410 C.ar    1  UNL1        0.0651
      2 C         143.8839  140.7974  164.2323 C.ar    1  UNL1        0.0177
      3 C         144.0297  140.8674  162.7411 C.ar    1  UNL1        0.0060
      4 C         143.0791  140.1142  161.8584 C.ar    1  UNL1        0.0537
      5 C         141.9828  139.2909  162.4670 C.ar    1  UNL1        0.0060
      6 C         141.8371  139.2209  163.9583 C.ar    1  UNL1        0.0177
      7 C         144.0495  137.6775  166.7859 C.3     1  UNL1        0.0722
      8 C         143.2219  138.8486  167.2262 C.ar    1  UNL1        0.1246
      9 N         142.8290  139.1696  168.6378 N.ar    1  UNL1       -0.2306
     10 C         142.0062  140.4236  168.6163 C.ar    1  UNL1        0.0986
     11 C         141.3474  141.2107  169.7100 C.ar    1  UNL1        0.0206
     12 C         140.5729  142.4518  169.3788 C.ar    1  UNL1        0.0016
     13 C         140.4573  142.9059  167.9539 C.ar    1  UNL1        0.0016
     14 C         141.1162  142.1188  166.8601 C.ar    1  UNL1        0.0191
     15 C         141.8906  140.8776  167.1913 C.ar    1  UNL1        0.0826
     16 N         142.6420  139.9042  166.3322 N.ar    1  UNL1       -0.2936
     17 C         143.2249  140.1841  160.3671 C.2     1  UNL1        0.2491
     18 O         143.9136  139.0754  159.6281 O.2     1  UNL1       -0.2699
     19 N         142.6819  141.3629  159.6150 N.am    1  UNL1       -0.2745
     20 C         142.8277  141.4328  158.1237 C.3     1  UNL1        0.1151
     21 C         141.9931  142.4716  160.3541 C.3     1  UNL1        0.0930
     22 C         142.1469  143.9392  160.0850 C.3     1  UNL1        0.0386
     23 C         141.2785  144.6821  161.0567 C.3     1  UNL1        0.0738
     24 N         140.5881  143.6736  161.9263 N.3     1  UNL1       -0.2725
     25 C         141.0298  142.3074  161.4920 C.3     1  UNL1        0.0921
     26 C         139.6251  143.9778  163.0353 C.3     1  UNL1        0.0575
     27 C         138.1747  143.5969  163.0729 C.3     1  UNL1        0.0160
     28 C         137.5966  144.1001  164.3625 C.3     1  UNL1        0.0014
     29 C         138.6898  144.7919  165.1217 C.3     1  UNL1        0.0014
     30 C         139.9434  144.7164  164.3015 C.3     1  UNL1        0.0160
@<TRIPOS>BOND
     1     7     8    1
     2     8     9   ar
     3     9    10   ar
     4    10    11   ar
     5    11    12   ar
     6    12    13   ar
     7    13    14   ar
     8    14    15   ar
     9    15    16   ar
    10    16     1    1
    11     1     2   ar
    12     2     3   ar
    13     3     4   ar
    14     4    17    1
    15    17    18    2
    16    17    19   am
    17    19    20    1
    18    21    19    1
    19    21    22    1
    20    22    23    1
    21    23    24    1
    22    24    26    1
    23    26    27    1
    24    27    28    1
    25    28    29    1
    26    29    30    1
    27    24    25    1
    28     4     5   ar
    29     5     6   ar
    30    16     8   ar
    31     6     1   ar
    32    15    10   ar
    33    25    21    1
    34    30    26    1
@<TRIPOS>MOLECULE
*****
 30 34 0 0 0
SMALL
GASTEIGER

@<TRIPOS>ATOM
      1 C         138.9176  140.1904  165.1318 C.ar    1  UNL1        0.0651
      2 C         138.2076  141.3670  164.5307 C.ar    1  UNL1        0.0177
      3 C         137.9648  141.4210  163.0515 C.ar    1  UNL1        0.0060
      4 C         138.4322  140.2984  162.1733 C.ar    1  UNL1        0.0537
      5 C         139.1422  139.1217  162.7743 C.ar    1  UNL1        0.0060
      6 C         139.3849  139.0677  164.2536 C.ar    1  UNL1        0.0177
      7 C         137.2899  138.3465  167.2767 C.3     1  UNL1        0.0722
      8 C         138.4121  139.2889  167.5969 C.ar    1  UNL1        0.1246
      9 N         138.9833  139.5491  168.9593 N.ar    1  UNL1       -0.2306
     10 C         140.0844  140.5575  168.8154 C.ar    1  UNL1        0.0986
     11 C         141.0015  141.1921  169.8185 C.ar    1  UNL1        0.0206
     12 C         142.0281  142.1897  169.3702 C.ar    1  UNL1        0.0016
     13 C         142.1375  142.5527  167.9189 C.ar    1  UNL1        0.0016
     14 C         141.2203  141.9181  166.9159 C.ar    1  UNL1        0.0191
     15 C         140.1938  140.9205  167.3641 C.ar    1  UNL1        0.0826
     16 N         139.1603  140.1364  166.6111 N.ar    1  UNL1       -0.2936
     17 C         138.1894  140.3524  160.6940 C.2     1  UNL1        0.2491
     18 O         137.0441  139.5923  160.0938 O.2     1  UNL1       -0.2699
     19 N         139.0920  141.1665  159.8151 N.am    1  UNL1       -0.2745
     20 C         138.8492  141.2205  158.3359 C.3     1  UNL1        0.1151
     21 C         140.2374  141.9266  160.4155 C.3     1  UNL1        0.0930
     22 C         140.4911  143.3980  160.2713 C.3     1  UNL1        0.0386
     23 C         141.7406  143.7295  161.0321 C.3     1  UNL1        0.0738
     24 N         142.2591  142.4632  161.6465 N.3     1  UNL1       -0.2725
     25 C         141.3300  141.3489  161.2654 C.3     1  UNL1        0.0921
     26 C         143.4904  142.3338  162.4933 C.3     1  UNL1        0.0575
     27 C         143.6434  142.8141  163.9061 C.3     1  UNL1        0.0160
     28 C         145.0325  142.4785  164.3619 C.3     1  UNL1        0.0014
     29 C         145.7380  141.7908  163.2308 C.3     1  UNL1        0.0014
     30 C         144.7849  141.7014  162.0760 C.3     1  UNL1        0.0160
@<TRIPOS>BOND
     1     7     8    1
     2     8     9   ar
     3     9    10   ar
     4    10    11   ar
     5    11    12   ar
     6    12    13   ar
     7    13    14   ar
     8    14    15   ar
     9    15    16   ar
    10    16     1    1
    11     1     2   ar
    12     2     3   ar
    13     3     4   ar
    14     4    17    1
    15    17    18    2
    16    17    19   am
    17    19    20    1
    18    21    19    1
    19    21    22    1
    20    22    23    1
    21    23    24    1
    22    24    26    1
    23    26    27    1
    24    27    28    1
    25    28    29    1
    26    29    30    1
    27    24    25    1
    28     4     5   ar
    29     5     6   ar
    30    16     8   ar
    31     6     1   ar
    32    15    10   ar
    33    25    21    1
    34    30    26    1
@<TRIPOS>MOLECULE
*****
 30 34 0 0 0
SMALL
GASTEIGER

@<TRIPOS>ATOM
      1 C         142.3743  139.2211  164.6050 C.ar    1  UNL1        0.0651
      2 C         143.2250  139.9731  163.6249 C.ar    1  UNL1        0.0177
      3 C         143.1763  139.6239  162.1669 C.ar    1  UNL1        0.0060
      4 C         142.2769  138.5227  161.6891 C.ar    1  UNL1        0.0537
      5 C         141.4262  137.7706  162.6692 C.ar    1  UNL1        0.0060
      6 C         141.4749  138.1198  164.1272 C.ar    1  UNL1        0.0177
      7 C         143.9949  137.5840  166.9165 C.3     1  UNL1        0.0722
      8 C         143.1679  138.8178  167.1255 C.ar    1  UNL1        0.1246
      9 N         142.9405  139.5158  168.4336 N.ar    1  UNL1       -0.2306
     10 C         142.0551  140.6997  168.1796 C.ar    1  UNL1        0.0986
     11 C         141.4989  141.7513  169.0931 C.ar    1  UNL1        0.0206
     12 C         140.6227  142.8367  168.5415 C.ar    1  UNL1        0.0016
     13 C         140.3028  142.8704  167.0764 C.ar    1  UNL1        0.0016
     14 C         140.8591  141.8187  166.1629 C.ar    1  UNL1        0.0191
     15 C         141.7353  140.7334  166.7145 C.ar    1  UNL1        0.0826
     16 N         142.4230  139.5703  166.0630 N.ar    1  UNL1       -0.2936
     17 C         142.2282  138.1735  160.2311 C.2     1  UNL1        0.2491
     18 O         143.2929  137.3027  159.6326 O.2     1  UNL1       -0.2699
     19 N         141.1149  138.6950  159.3717 N.am    1  UNL1       -0.2745
     20 C         141.0663  138.3457  157.9137 C.3     1  UNL1        0.1151
     21 C         140.0503  139.5657  159.9703 C.3     1  UNL1        0.0930
     22 C         138.5749  139.2964  159.9472 C.3     1  UNL1        0.0386
     23 C         137.8869  140.4228  160.6597 C.3     1  UNL1        0.0738
     24 N         138.9370  141.3884  161.1232 N.3     1  UNL1       -0.2725
     25 C         140.2741  140.8586  160.6971 C.3     1  UNL1        0.0921
     26 C         138.6930  142.6603  161.8799 C.3     1  UNL1        0.0575
     27 C         137.6760  142.8598  162.9643 C.3     1  UNL1        0.0160
     28 C         137.7776  144.2789  163.4397 C.3     1  UNL1        0.0014
     29 C         138.8573  144.9564  162.6489 C.3     1  UNL1        0.0014
     30 C         139.4230  143.9560  161.6850 C.3     1  UNL1        0.0160
@<TRIPOS>BOND
     1     7     8    1
     2     8     9   ar
     3     9    10   ar
     4    10    11   ar
     5    11    12   ar
     6    12    13   ar
     7    13    14   ar
     8    14    15   ar
     9    15    16   ar
    10    16     1    1
    11     1     2   ar
    12     2     3   ar
    13     3     4   ar
    14     4    17    1
    15    17    18    2
    16    17    19   am
    17    19    20    1
    18    21    19    1
    19    21    22    1
    20    22    23    1
    21    23    24    1
    22    24    26    1
    23    26    27    1
    24    27    28    1
    25    28    29    1
    26    29    30    1
    27    24    25    1
    28     4     5   ar
    29     5     6   ar
    30    16     8   ar
    31     6     1   ar
    32    15    10   ar
    33    25    21    1
    34    30    26    1
@<TRIPOS>MOLECULE
*****
 30 34 0 0 0
SMALL
GASTEIGER

@<TRIPOS>ATOM
      1 C         141.0662  138.4519  161.0766 C.ar    1  UNL1        0.0651
      2 C         139.7311  139.1110  161.2580 C.ar    1  UNL1        0.0177
      3 C         138.9958  138.9708  162.5579 C.ar    1  UNL1        0.0060
      4 C         139.5957  138.1715  163.6765 C.ar    1  UNL1        0.0537
      5 C         140.9308  137.5123  163.4952 C.ar    1  UNL1        0.0060
      6 C         141.6661  137.6525  162.1953 C.ar    1  UNL1        0.0177
      7 C         144.1719  139.3886  160.7209 C.3     1  UNL1        0.0722
      8 C         143.2290  139.0226  159.6132 C.ar    1  UNL1        0.1246
      9 N         143.5481  139.0229  158.1476 N.ar    1  UNL1       -0.2306
     10 C         142.3177  138.5925  157.4052 C.ar    1  UNL1        0.0986
     11 C         142.0409  138.4086  155.9426 C.ar    1  UNL1        0.0206
     12 C         140.6846  137.9585  155.4868 C.ar    1  UNL1        0.0016
     13 C         139.6051  137.6922  156.4937 C.ar    1  UNL1        0.0016
     14 C         139.8820  137.8760  157.9564 C.ar    1  UNL1        0.0191
     15 C         141.2383  138.3262  158.4121 C.ar    1  UNL1        0.0826
     16 N         141.8015  138.5920  159.7767 N.ar    1  UNL1       -0.2936
     17 C         138.8604  138.0314  164.9764 C.2     1  UNL1        0.2491
     18 O         138.2406  136.7174  165.3495 O.2     1  UNL1       -0.2699
     19 N         138.7450  139.2052  165.9031 N.am    1  UNL1       -0.2745
     20 C         138.0097  139.0649  167.2030 C.3     1  UNL1        0.1151
     21 C         139.3648  140.5191  165.5300 C.3     1  UNL1        0.0930
     22 C         138.6332  141.7274  165.0253 C.3     1  UNL1        0.0386
     23 C         139.6413  142.8105  164.7794 C.3     1  UNL1        0.0738
     24 N         140.9960  142.2717  165.1320 N.3     1  UNL1       -0.2725
     25 C         140.8251  140.8555  165.5959 C.3     1  UNL1        0.0921
     26 C         142.2937  143.0180  165.0374 C.3     1  UNL1        0.0575
     27 C         143.5455  142.7108  165.8047 C.3     1  UNL1        0.0160
     28 C         144.5929  143.7055  165.4003 C.3     1  UNL1        0.0014
     29 C         143.9885  144.6273  164.3830 C.3     1  UNL1        0.0014
     30 C         142.5675  144.2025  164.1587 C.3     1  UNL1        0.0160
@<TRIPOS>BOND
     1     7     8    1
     2     8     9   ar
     3     9    10   ar
     4    10    11   ar
     5    11    12   ar
     6    12    13   ar
     7    13    14   ar
     8    14    15   ar
     9    15    16   ar
    10    16     1    1
    11     1     2   ar
    12     2     3   ar
    13     3     4   ar
    14     4    17    1
    15    17    18    2
    16    17    19   am
    17    19    20    1
    18    21    19    1
    19    21    22    1
    20    22    23    1
    21    23    24    1
    22    24    26    1
    23    26    27    1
    24    27    28    1
    25    28    29    1
    26    29    30    1
    27    24    25    1
    28     4     5   ar
    29     5     6   ar
    30    16     8   ar
    31     6     1   ar
    32    15    10   ar
    33    25    21    1
    34    30    26    1
@<TRIPOS>MOLECULE
*****
 30 34 0 0 0
SMALL
GASTEIGER

@<TRIPOS>ATOM
      1 C         141.2127  142.3225  165.4652 C.ar    1  UNL1        0.0651
      2 C         139.9515  141.9511  164.7434 C.ar    1  UNL1        0.0177
      3 C         139.5246  142.7258  163.5319 C.ar    1  UNL1        0.0060
      4 C         140.3591  143.8720  163.0423 C.ar    1  UNL1        0.0537
      5 C         141.6204  144.2436  163.7641 C.ar    1  UNL1        0.0060
      6 C         142.0473  143.4688  164.9756 C.ar    1  UNL1        0.0177
      7 C         143.0378  139.6172  165.4671 C.3     1  UNL1        0.0722
      8 C         142.4785  140.3043  166.6775 C.ar    1  UNL1        0.1246
      9 N         142.6598  139.8685  168.1013 N.ar    1  UNL1       -0.2306
     10 C         141.9330  140.8427  168.9804 C.ar    1  UNL1        0.0986
     11 C         141.7639  140.9188  170.4689 C.ar    1  UNL1        0.0206
     12 C         140.9643  142.0328  171.0768 C.ar    1  UNL1        0.0016
     13 C         140.3338  143.0706  170.1963 C.ar    1  UNL1        0.0016
     14 C         140.5028  142.9945  168.7078 C.ar    1  UNL1        0.0191
     15 C         141.3025  141.8806  168.0999 C.ar    1  UNL1        0.0826
     16 N         141.6396  141.5478  166.6767 N.ar    1  UNL1       -0.2936
     17 C         139.9322  144.6468  161.8309 C.2     1  UNL1        0.2491
     18 O         138.8621  145.6913  161.9474 O.2     1  UNL1       -0.2699
     19 N         140.5755  144.3769  160.5030 N.am    1  UNL1       -0.2745
     20 C         140.1485  145.1517  159.2916 C.3     1  UNL1        0.1151
     21 C         141.6456  143.3323  160.3865 C.3     1  UNL1        0.0930
     22 C         143.0809  143.5769  160.0257 C.3     1  UNL1        0.0386
     23 C         143.7907  142.2556  160.0266 C.3     1  UNL1        0.0738
     24 N         142.7942  141.1943  160.3879 N.3     1  UNL1       -0.2725
     25 C         141.4684  141.8598  160.6104 C.3     1  UNL1        0.0921
     26 C         143.0742  139.7254  160.5061 C.3     1  UNL1        0.0575
     27 C         143.9933  139.0802  161.5006 C.3     1  UNL1        0.0160
     28 C         143.9714  137.5998  161.2596 C.3     1  UNL1        0.0014
     29 C         143.0389  137.3302  160.1161 C.3     1  UNL1        0.0014
     30 C         142.4844  138.6438  159.6504 C.3     1  UNL1        0.0160
@<TRIPOS>BOND
     1     7     8    1
     2     8     9   ar
     3     9    10   ar
     4    10    11   ar
     5    11    12   ar
     6    12    13   ar
     7    13    14   ar
     8    14    15   ar
     9    15    16   ar
    10    16     1    1
    11     1     2   ar
    12     2     3   ar
    13     3     4   ar
    14     4    17    1
    15    17    18    2
    16    17    19   am
    17    19    20    1
    18    21    19    1
    19    21    22    1
    20    22    23    1
    21    23    24    1
    22    24    26    1
    23    26    27    1
    24    27    28    1
    25    28    29    1
    26    29    30    1
    27    24    25    1
    28     4     5   ar
    29     5     6   ar
    30    16     8   ar
    31     6     1   ar
    32    15    10   ar
    33    25    21    1
    34    30    26    1
