@<TRIPOS>MOLECULE
*****
 46 51 0 0 0
SMALL
GASTEIGER

@<TRIPOS>ATOM
      1 C         142.5846  141.1852  162.8890 C.ar    1  UNL1        0.1445
      2 N         143.5263  142.0104  162.0632 N.ar    1  UNL1       -0.2301
      3 C         143.7065  141.7088  160.6049 C.ar    1  UNL1        0.0878
      4 C         144.6482  142.5341  159.7791 C.ar    1  UNL1        0.0193
      5 C         144.8283  142.2324  158.3208 C.ar    1  UNL1        0.0022
      6 C         144.0666  141.1056  157.6884 C.ar    1  UNL1        0.0085
      7 C         143.1249  140.2803  158.5141 C.ar    1  UNL1        0.0477
      8 C         142.9448  140.5819  159.9724 C.ar    1  UNL1        0.0818
      9 C         142.0030  139.7567  160.7983 C.ar    1  UNL1        0.2676
     10 O         141.2413  138.6298  160.1658 O.2     1  UNL1       -0.2665
     11 N         141.8229  140.0583  162.2565 N.ar    1  UNL1       -0.2613
     12 C         140.8811  139.2330  163.0824 C.ar    1  UNL1        0.0680
     13 C         139.4170  139.5587  163.1004 C.ar    1  UNL1        0.0176
     14 C         138.4752  138.7335  163.9262 C.ar    1  UNL1        0.0015
     15 C         138.9975  137.5827  164.7340 C.ar    1  UNL1        0.0001
     16 C         140.4616  137.2570  164.7160 C.ar    1  UNL1        0.0015
     17 C         141.4034  138.0821  163.8902 C.ar    1  UNL1        0.0176
     18 N         141.3787  142.4089  164.9367 N.pl3   1  UNL1       -0.2875
     19 C         141.5587  142.4113  166.4260 C.3     1  UNL1        0.0926
     20 C         142.6957  141.4905  166.7568 C.3     1  UNL1        0.0236
     21 C         143.2184  140.9192  165.4722 C.3     1  UNL1        0.0293
     22 C         142.4044  141.4868  164.3473 C.3     1  UNL1        0.1314
     23 C         140.7334  144.4850  163.5142 C.ar    1  UNL1        0.1310
     24 C         139.7077  145.2675  162.7489 C.ar    1  UNL1        0.1396
     25 N         140.0880  146.5610  162.0917 N.pl3   1  UNL1       -0.3420
     26 N         138.3016  144.7563  162.6408 N.ar    1  UNL1       -0.2087
     27 C         137.9212  143.4627  163.2980 C.ar    1  UNL1        0.2012
     28 N         138.9469  142.6803  164.0633 N.ar    1  UNL1       -0.2082
     29 C         140.3530  143.1914  164.1714 C.ar    1  UNL1        0.1461
     30 H         141.0108  146.8965  162.1626 H       1  UNL1        0.1437
     31 H         139.4148  147.0745  161.5894 H       1  UNL1        0.1437
     32 N         143.5456  145.5072  163.7305 N.1     1  UNL1       -0.1906
     33 C         142.1395  144.9961  163.6223 C.1     1  UNL1        0.1061
     34 C         142.3632  139.1535  157.8817 C.1     1  UNL1       -0.0642
     35 C         141.6015  138.0266  157.2492 C.1     1  UNL1       -0.0864
     36 C         140.8398  136.8997  156.6168 C.3     1  UNL1        0.0769
     37 C         141.5092  136.0159  155.6065 C.3     1  UNL1        0.0235
     38 C         142.5852  135.0643  156.0384 C.3     1  UNL1        0.0863
     39 C         142.3116  133.5899  156.0764 C.2     1  UNL1        0.2258
     40 O         141.1010  133.0338  155.3871 O.2     1  UNL1       -0.2749
     41 N         143.2485  132.6717  156.8037 N.am    1  UNL1       -0.2744
     42 C         142.9749  131.1974  156.8417 C.3     1  UNL1        0.1255
     43 C         143.9119  130.2792  157.5691 C.3     1  UNL1        0.1636
     44 O         145.1225  130.8353  158.2584 O.3     1  UNL1       -0.3501
     45 C         145.3961  132.3097  158.2204 C.3     1  UNL1        0.1636
     46 C         144.4592  133.2279  157.4931 C.3     1  UNL1        0.1255
@<TRIPOS>BOND
     1    32    33    3
     2    33    23    1
     3    23    24   ar
     4    24    25    1
     5    24    26   ar
     6    26    27   ar
     7    27    28   ar
     8    28    29   ar
     9    29    18    1
    10    18    19    1
    11    19    20    1
    12    20    21    1
    13    21    22    1
    14    22     1    1
    15     1     2   ar
    16     2     3   ar
    17     3     4   ar
    18     4     5   ar
    19     5     6   ar
    20     6     7   ar
    21     7    34    1
    22    34    35    3
    23    35    36    1
    24    36    37    1
    25    37    38    1
    26    38    39    1
    27    39    40    2
    28    39    41   am
    29    41    42    1
    30    42    43    1
    31    43    44    1
    32    44    45    1
    33    45    46    1
    34     7     8   ar
    35     8     9   ar
    36     9    10    2
    37     9    11   ar
    38    11    12    1
    39    12    13   ar
    40    13    14   ar
    41    14    15   ar
    42    15    16   ar
    43    16    17   ar
    44    29    23   ar
    45    22    18    1
    46    11     1   ar
    47    17    12   ar
    48     8     3   ar
    49    46    41    1
    50    25    30    1
    51    25    31    1
@<TRIPOS>MOLECULE
*****
 46 51 0 0 0
SMALL
GASTEIGER

@<TRIPOS>ATOM
      1 C         142.6278  141.2437  163.0510 C.ar    1  UNL1        0.1445
      2 N         143.5087  142.1729  162.2697 N.ar    1  UNL1       -0.2301
      3 C         143.8035  141.8905  160.8263 C.ar    1  UNL1        0.0878
      4 C         144.6845  142.8197  160.0450 C.ar    1  UNL1        0.0193
      5 C         144.9792  142.5372  158.6017 C.ar    1  UNL1        0.0022
      6 C         144.3931  141.3256  157.9396 C.ar    1  UNL1        0.0085
      7 C         143.5122  140.3963  158.7209 C.ar    1  UNL1        0.0477
      8 C         143.2174  140.6788  160.1642 C.ar    1  UNL1        0.0818
      9 C         142.3364  139.7495  160.9456 C.ar    1  UNL1        0.2676
     10 O         141.7503  138.5379  160.2836 O.2     1  UNL1       -0.2665
     11 N         142.0416  140.0320  162.3890 N.ar    1  UNL1       -0.2613
     12 C         141.1606  139.1028  163.1703 C.ar    1  UNL1        0.0680
     13 C         141.7561  137.9199  163.8748 C.ar    1  UNL1        0.0176
     14 C         140.8752  136.9907  164.6562 C.ar    1  UNL1        0.0015
     15 C         139.3989  137.2443  164.7330 C.ar    1  UNL1        0.0001
     16 C         138.8034  138.4272  164.0286 C.ar    1  UNL1        0.0015
     17 C         139.6843  139.3564  163.2472 C.ar    1  UNL1        0.0176
     18 N         141.2395  142.4117  165.0140 N.pl3   1  UNL1       -0.2875
     19 C         141.3105  142.4055  166.5123 C.3     1  UNL1        0.0926
     20 C         142.4479  141.5159  166.9187 C.3     1  UNL1        0.0236
     21 C         143.0798  140.9725  165.6716 C.3     1  UNL1        0.0293
     22 C         142.3329  141.5261  164.4944 C.3     1  UNL1        0.1314
     23 C         140.6464  144.4655  163.5375 C.ar    1  UNL1        0.1310
     24 C         139.6558  145.2242  162.7050 C.ar    1  UNL1        0.1396
     25 N         140.0532  146.5193  162.0609 N.pl3   1  UNL1       -0.3420
     26 N         138.2677  144.6879  162.5164 N.ar    1  UNL1       -0.2087
     27 C         137.8702  143.3927  163.1605 C.ar    1  UNL1        0.2012
     28 N         138.8608  142.6341  163.9929 N.ar    1  UNL1       -0.2082
     29 C         140.2489  143.1705  164.1814 C.ar    1  UNL1        0.1461
     30 H         140.9642  146.8714  162.1846 H       1  UNL1        0.1437
     31 H         139.4030  147.0172  161.5145 H       1  UNL1        0.1437
     32 N         143.4226  145.5382  163.9145 N.1     1  UNL1       -0.1906
     33 C         142.0344  145.0019  163.7260 C.1     1  UNL1        0.1061
     34 C         142.9260  139.1847  158.0589 C.1     1  UNL1       -0.0642
     35 C         142.3399  137.9730  157.3968 C.1     1  UNL1       -0.0864
     36 C         141.7537  136.7613  156.7348 C.3     1  UNL1        0.0769
     37 C         142.6558  135.7290  156.1262 C.3     1  UNL1        0.0235
     38 C         142.1997  134.3041  156.0185 C.3     1  UNL1        0.0863
     39 C         142.9225  133.2264  156.7710 C.2     1  UNL1        0.2258
     40 O         143.9064  133.5907  157.8430 O.2     1  UNL1       -0.2749
     41 N         142.6614  131.7843  156.4513 N.am    1  UNL1       -0.2744
     42 C         143.3841  130.7065  157.2037 C.3     1  UNL1        0.1255
     43 C         143.1230  129.2644  156.8841 C.3     1  UNL1        0.1636
     44 O         142.1392  128.9000  155.8121 O.3     1  UNL1       -0.3501
     45 C         141.4164  129.9778  155.0596 C.3     1  UNL1        0.1636
     46 C         141.6775  131.4199  155.3793 C.3     1  UNL1        0.1255
@<TRIPOS>BOND
     1    32    33    3
     2    33    23    1
     3    23    24   ar
     4    24    25    1
     5    24    26   ar
     6    26    27   ar
     7    27    28   ar
     8    28    29   ar
     9    29    18    1
    10    18    19    1
    11    19    20    1
    12    20    21    1
    13    21    22    1
    14    22     1    1
    15     1     2   ar
    16     2     3   ar
    17     3     4   ar
    18     4     5   ar
    19     5     6   ar
    20     6     7   ar
    21     7    34    1
    22    34    35    3
    23    35    36    1
    24    36    37    1
    25    37    38    1
    26    38    39    1
    27    39    40    2
    28    39    41   am
    29    41    42    1
    30    42    43    1
    31    43    44    1
    32    44    45    1
    33    45    46    1
    34     7     8   ar
    35     8     9   ar
    36     9    10    2
    37     9    11   ar
    38    11    12    1
    39    12    13   ar
    40    13    14   ar
    41    14    15   ar
    42    15    16   ar
    43    16    17   ar
    44    29    23   ar
    45    22    18    1
    46    11     1   ar
    47    17    12   ar
    48     8     3   ar
    49    46    41    1
    50    25    30    1
    51    25    31    1
@<TRIPOS>MOLECULE
*****
 46 51 0 0 0
SMALL
GASTEIGER

@<TRIPOS>ATOM
      1 C         142.6477  141.2330  163.0407 C.ar    1  UNL1        0.1445
      2 N         143.5244  142.1619  162.2542 N.ar    1  UNL1       -0.2301
      3 C         143.8225  141.8715  160.8131 C.ar    1  UNL1        0.0878
      4 C         144.6992  142.8003  160.0266 C.ar    1  UNL1        0.0193
      5 C         144.9973  142.5099  158.5855 C.ar    1  UNL1        0.0022
      6 C         144.4188  141.2906  157.9309 C.ar    1  UNL1        0.0085
      7 C         143.5421  140.3617  158.7174 C.ar    1  UNL1        0.0477
      8 C         143.2440  140.6521  160.1585 C.ar    1  UNL1        0.0818
      9 C         142.3673  139.7232  160.9450 C.ar    1  UNL1        0.2676
     10 O         141.7887  138.5039  160.2904 O.2     1  UNL1       -0.2665
     11 N         142.0691  140.0137  162.3861 N.ar    1  UNL1       -0.2613
     12 C         141.1924  139.0848  163.1726 C.ar    1  UNL1        0.0680
     13 C         141.7974  137.9274  163.9104 C.ar    1  UNL1        0.0176
     14 C         140.9208  136.9985  164.6969 C.ar    1  UNL1        0.0015
     15 C         139.4391  137.2270  164.7456 C.ar    1  UNL1        0.0001
     16 C         138.8341  138.3844  164.0078 C.ar    1  UNL1        0.0015
     17 C         139.7108  139.3133  163.2213 C.ar    1  UNL1        0.0176
     18 N         141.2539  142.4107  164.9940 N.pl3   1  UNL1       -0.2875
     19 C         141.3219  142.4132  166.4925 C.3     1  UNL1        0.0926
     20 C         142.4595  141.5275  166.9064 C.3     1  UNL1        0.0236
     21 C         143.0946  140.9775  165.6637 C.3     1  UNL1        0.0293
     22 C         142.3495  141.5234  164.4818 C.3     1  UNL1        0.1314
     23 C         140.6567  144.4627  163.5167 C.ar    1  UNL1        0.1310
     24 C         139.6669  145.2153  162.6777 C.ar    1  UNL1        0.1396
     25 N         140.0593  146.5147  162.0393 N.pl3   1  UNL1       -0.3420
     26 N         138.2845  144.6686  162.4772 N.ar    1  UNL1       -0.2087
     27 C         137.8919  143.3692  163.1156 C.ar    1  UNL1        0.2012
     28 N         138.8818  142.6166  163.9545 N.ar    1  UNL1       -0.2082
     29 C         140.2641  143.1633  164.1550 C.ar    1  UNL1        0.1461
     30 H         140.9666  146.8736  162.1709 H       1  UNL1        0.1437
     31 H         139.4096  147.0086  161.4887 H       1  UNL1        0.1437
     32 N         143.4213  145.5562  163.9178 N.1     1  UNL1       -0.1906
     33 C         142.0390  145.0094  163.7172 C.1     1  UNL1        0.1061
     34 C         142.9635  139.1424  158.0628 C.1     1  UNL1       -0.0642
     35 C         142.3850  137.9230  157.4082 C.1     1  UNL1       -0.0864
     36 C         141.8064  136.7037  156.7536 C.3     1  UNL1        0.0769
     37 C         140.6148  136.8308  155.8514 C.3     1  UNL1        0.0235
     38 C         139.3834  137.5405  156.3308 C.3     1  UNL1        0.0863
     39 C         139.1663  138.9836  155.9835 C.2     1  UNL1        0.2258
     40 O         139.1124  139.4092  154.5462 O.2     1  UNL1       -0.2749
     41 N         139.0031  140.0010  157.0736 N.am    1  UNL1       -0.2744
     42 C         138.7860  141.4440  156.7264 C.3     1  UNL1        0.1255
     43 C         138.6229  142.4614  157.8165 C.3     1  UNL1        0.1636
     44 O         138.6768  142.0358  159.2538 O.3     1  UNL1       -0.3501
     45 C         138.8939  140.5927  159.6011 C.3     1  UNL1        0.1636
     46 C         139.0571  139.5753  158.5110 C.3     1  UNL1        0.1255
@<TRIPOS>BOND
     1    32    33    3
     2    33    23    1
     3    23    24   ar
     4    24    25    1
     5    24    26   ar
     6    26    27   ar
     7    27    28   ar
     8    28    29   ar
     9    29    18    1
    10    18    19    1
    11    19    20    1
    12    20    21    1
    13    21    22    1
    14    22     1    1
    15     1     2   ar
    16     2     3   ar
    17     3     4   ar
    18     4     5   ar
    19     5     6   ar
    20     6     7   ar
    21     7    34    1
    22    34    35    3
    23    35    36    1
    24    36    37    1
    25    37    38    1
    26    38    39    1
    27    39    40    2
    28    39    41   am
    29    41    42    1
    30    42    43    1
    31    43    44    1
    32    44    45    1
    33    45    46    1
    34     7     8   ar
    35     8     9   ar
    36     9    10    2
    37     9    11   ar
    38    11    12    1
    39    12    13   ar
    40    13    14   ar
    41    14    15   ar
    42    15    16   ar
    43    16    17   ar
    44    29    23   ar
    45    22    18    1
    46    11     1   ar
    47    17    12   ar
    48     8     3   ar
    49    46    41    1
    50    25    30    1
    51    25    31    1
@<TRIPOS>MOLECULE
*****
 46 51 0 0 0
SMALL
GASTEIGER

@<TRIPOS>ATOM
      1 C         143.1081  141.1008  161.5538 C.ar    1  UNL1        0.1445
      2 N         143.9683  141.8621  160.5892 N.ar    1  UNL1       -0.2301
      3 C         143.9894  141.4786  159.1391 C.ar    1  UNL1        0.0878
      4 C         144.8496  142.2399  158.1745 C.ar    1  UNL1        0.0193
      5 C         144.8708  141.8564  156.7245 C.ar    1  UNL1        0.0022
      6 C         144.0317  140.7117  156.2392 C.ar    1  UNL1        0.0085
      7 C         143.1715  139.9504  157.2038 C.ar    1  UNL1        0.0477
      8 C         143.1504  140.3339  158.6537 C.ar    1  UNL1        0.0818
      9 C         142.2901  139.5726  159.6184 C.ar    1  UNL1        0.2676
     10 O         141.4511  138.4279  159.1331 O.2     1  UNL1       -0.2665
     11 N         142.2690  139.9561  161.0684 N.ar    1  UNL1       -0.2613
     12 C         141.4088  139.1948  162.0331 C.ar    1  UNL1        0.0680
     13 C         139.9903  139.6209  162.2706 C.ar    1  UNL1        0.0176
     14 C         139.1301  138.8597  163.2352 C.ar    1  UNL1        0.0015
     15 C         139.6883  137.6725  163.9624 C.ar    1  UNL1        0.0001
     16 C         141.1068  137.2464  163.7249 C.ar    1  UNL1        0.0015
     17 C         141.9670  138.0076  162.7602 C.ar    1  UNL1        0.0176
     18 N         142.2682  142.5836  163.6132 N.pl3   1  UNL1       -0.2875
     19 C         142.5560  142.6145  165.0850 C.3     1  UNL1        0.0926
     20 C         143.5526  141.5343  165.3852 C.3     1  UNL1        0.0236
     21 C         143.8807  140.8358  164.0990 C.3     1  UNL1        0.0293
     22 C         143.0869  141.4843  163.0038 C.3     1  UNL1        0.1314
     23 C         139.8637  143.4808  163.2093 C.ar    1  UNL1        0.1310
     24 C         138.9224  144.3896  162.4757 C.ar    1  UNL1        0.1396
     25 N         137.4591  144.3781  162.8054 N.pl3   1  UNL1       -0.3420
     26 N         139.4444  145.3099  161.4124 N.ar    1  UNL1       -0.2087
     27 C         140.9077  145.3214  161.0827 C.ar    1  UNL1        0.2012
     28 N         141.8489  144.4126  161.8163 N.ar    1  UNL1       -0.2082
     29 C         141.3269  143.4923  162.8796 C.ar    1  UNL1        0.1461
     30 H         137.1165  143.7741  163.5032 H       1  UNL1        0.1437
     31 H         136.8414  144.9746  162.3239 H       1  UNL1        0.1437
     32 N         138.8197  141.6401  165.3359 N.1     1  UNL1       -0.1906
     33 C         139.3417  142.5605  164.2726 C.1     1  UNL1        0.1061
     34 C         142.3324  138.8057  156.7184 C.1     1  UNL1       -0.0642
     35 C         141.4934  137.6610  156.2330 C.1     1  UNL1       -0.0864
     36 C         140.6543  136.5163  155.7477 C.3     1  UNL1        0.0769
     37 C         141.2860  135.4007  154.9689 C.3     1  UNL1        0.0235
     38 C         142.3739  134.5751  155.5893 C.3     1  UNL1        0.0863
     39 C         142.1620  133.1086  155.8228 C.2     1  UNL1        0.2258
     40 O         140.9644  132.4213  155.2369 O.2     1  UNL1       -0.2749
     41 N         143.1477  132.3295  156.6421 N.am    1  UNL1       -0.2744
     42 C         142.9359  130.8630  156.8756 C.3     1  UNL1        0.1255
     43 C         143.9216  130.0839  157.6949 C.3     1  UNL1        0.1636
     44 O         145.1192  130.7712  158.2807 O.3     1  UNL1       -0.3501
     45 C         145.3311  132.2378  158.0472 C.3     1  UNL1        0.1636
     46 C         144.3454  133.0169  157.2279 C.3     1  UNL1        0.1255
@<TRIPOS>BOND
     1    32    33    3
     2    33    23    1
     3    23    24   ar
     4    24    25    1
     5    24    26   ar
     6    26    27   ar
     7    27    28   ar
     8    28    29   ar
     9    29    18    1
    10    18    19    1
    11    19    20    1
    12    20    21    1
    13    21    22    1
    14    22     1    1
    15     1     2   ar
    16     2     3   ar
    17     3     4   ar
    18     4     5   ar
    19     5     6   ar
    20     6     7   ar
    21     7    34    1
    22    34    35    3
    23    35    36    1
    24    36    37    1
    25    37    38    1
    26    38    39    1
    27    39    40    2
    28    39    41   am
    29    41    42    1
    30    42    43    1
    31    43    44    1
    32    44    45    1
    33    45    46    1
    34     7     8   ar
    35     8     9   ar
    36     9    10    2
    37     9    11   ar
    38    11    12    1
    39    12    13   ar
    40    13    14   ar
    41    14    15   ar
    42    15    16   ar
    43    16    17   ar
    44    29    23   ar
    45    22    18    1
    46    11     1   ar
    47    17    12   ar
    48     8     3   ar
    49    46    41    1
    50    25    30    1
    51    25    31    1
@<TRIPOS>MOLECULE
*****
 46 51 0 0 0
SMALL
GASTEIGER

@<TRIPOS>ATOM
      1 C         139.6415  141.7718  161.4581 C.ar    1  UNL1        0.1445
      2 N         139.6830  142.7602  160.3306 N.ar    1  UNL1       -0.2301
      3 C         140.2105  142.3456  158.9889 C.ar    1  UNL1        0.0878
      4 C         140.2520  143.3340  157.8614 C.ar    1  UNL1        0.0193
      5 C         140.7795  142.9194  156.5198 C.ar    1  UNL1        0.0022
      6 C         141.2654  141.5166  156.3057 C.ar    1  UNL1        0.0085
      7 C         141.2238  140.5282  157.4333 C.ar    1  UNL1        0.0477
      8 C         140.6964  140.9428  158.7749 C.ar    1  UNL1        0.0818
      9 C         140.6548  139.9544  159.9025 C.ar    1  UNL1        0.2676
     10 O         141.1407  138.5515  159.6885 O.2     1  UNL1       -0.2665
     11 N         140.1274  140.3690  161.2441 N.ar    1  UNL1       -0.2613
     12 C         140.0858  139.3806  162.3718 C.ar    1  UNL1        0.0680
     13 C         138.8083  138.6634  162.6937 C.ar    1  UNL1        0.0176
     14 C         138.7667  137.6751  163.8213 C.ar    1  UNL1        0.0015
     15 C         140.0026  137.4040  164.6269 C.ar    1  UNL1        0.0001
     16 C         141.2801  138.1212  164.3049 C.ar    1  UNL1        0.0015
     17 C         141.3217  139.1095  163.1774 C.ar    1  UNL1        0.0176
     18 N         139.9298  142.7109  163.9441 N.pl3   1  UNL1       -0.2875
     19 C         138.9982  142.9979  165.0843 C.3     1  UNL1        0.0926
     20 C         137.6067  142.6506  164.6445 C.3     1  UNL1        0.0236
     21 C         137.6783  142.1491  163.2327 C.3     1  UNL1        0.0293
     22 C         139.1140  142.1864  162.7998 C.3     1  UNL1        0.1314
     23 C         142.0095  144.1264  163.2953 C.ar    1  UNL1        0.1310
     24 C         143.4958  144.3286  163.2989 C.ar    1  UNL1        0.1396
     25 N         144.0893  145.5418  162.6465 N.pl3   1  UNL1       -0.3420
     26 N         144.3887  143.3174  163.9549 N.ar    1  UNL1       -0.2087
     27 C         143.7952  142.1040  164.6074 C.ar    1  UNL1        0.2012
     28 N         142.3089  141.9019  164.6037 N.ar    1  UNL1       -0.2082
     29 C         141.4161  142.9131  163.9477 C.ar    1  UNL1        0.1461
     30 H         143.5034  146.2055  162.2160 H       1  UNL1        0.1437
     31 H         145.0649  145.6745  162.6489 H       1  UNL1        0.1437
     32 N         140.2238  146.1487  161.9832 N.1     1  UNL1       -0.1906
     33 C         141.1167  145.1376  162.6393 C.1     1  UNL1        0.1061
     34 C         141.7097  139.1253  157.2193 C.1     1  UNL1       -0.0642
     35 C         142.1956  137.7224  157.0052 C.1     1  UNL1       -0.0864
     36 C         142.6815  136.3196  156.7912 C.3     1  UNL1        0.0769
     37 C         141.9018  135.3806  155.9193 C.3     1  UNL1        0.0235
     38 C         142.5969  134.2418  155.2338 C.3     1  UNL1        0.0863
     39 C         142.2852  132.8278  155.6257 C.2     1  UNL1        0.2258
     40 O         141.0476  132.1602  155.1037 O.2     1  UNL1       -0.2749
     41 N         143.2113  132.0814  156.5397 N.am    1  UNL1       -0.2744
     42 C         142.8997  130.6675  156.9317 C.3     1  UNL1        0.1255
     43 C         143.8257  129.9211  157.8457 C.3     1  UNL1        0.1636
     44 O         145.0634  130.5887  158.3677 O.3     1  UNL1       -0.3501
     45 C         145.3750  132.0027  157.9757 C.3     1  UNL1        0.1636
     46 C         144.4490  132.7490  157.0618 C.3     1  UNL1        0.1255
@<TRIPOS>BOND
     1    32    33    3
     2    33    23    1
     3    23    24   ar
     4    24    25    1
     5    24    26   ar
     6    26    27   ar
     7    27    28   ar
     8    28    29   ar
     9    29    18    1
    10    18    19    1
    11    19    20    1
    12    20    21    1
    13    21    22    1
    14    22     1    1
    15     1     2   ar
    16     2     3   ar
    17     3     4   ar
    18     4     5   ar
    19     5     6   ar
    20     6     7   ar
    21     7    34    1
    22    34    35    3
    23    35    36    1
    24    36    37    1
    25    37    38    1
    26    38    39    1
    27    39    40    2
    28    39    41   am
    29    41    42    1
    30    42    43    1
    31    43    44    1
    32    44    45    1
    33    45    46    1
    34     7     8   ar
    35     8     9   ar
    36     9    10    2
    37     9    11   ar
    38    11    12    1
    39    12    13   ar
    40    13    14   ar
    41    14    15   ar
    42    15    16   ar
    43    16    17   ar
    44    29    23   ar
    45    22    18    1
    46    11     1   ar
    47    17    12   ar
    48     8     3   ar
    49    46    41    1
    50    25    30    1
    51    25    31    1
@<TRIPOS>MOLECULE
*****
 46 51 0 0 0
SMALL
GASTEIGER

@<TRIPOS>ATOM
      1 C         138.6511  141.9299  159.9359 C.ar    1  UNL1        0.1445
      2 N         137.9891  142.9264  160.8408 N.ar    1  UNL1       -0.2301
      3 C         138.3744  142.9964  162.2888 C.ar    1  UNL1        0.0878
      4 C         137.7124  143.9929  163.1937 C.ar    1  UNL1        0.0193
      5 C         138.0977  144.0629  164.6417 C.ar    1  UNL1        0.0022
      6 C         139.1449  143.1364  165.1848 C.ar    1  UNL1        0.0085
      7 C         139.8068  142.1399  164.2799 C.ar    1  UNL1        0.0477
      8 C         139.4216  142.0699  162.8320 C.ar    1  UNL1        0.0818
      9 C         140.0835  141.0734  161.9270 C.ar    1  UNL1        0.2676
     10 O         141.1307  140.1469  162.4701 O.2     1  UNL1       -0.2665
     11 N         139.6983  141.0034  160.4791 N.ar    1  UNL1       -0.2613
     12 C         140.3602  140.0069  159.5741 C.ar    1  UNL1        0.0680
     13 C         141.8021  140.1777  159.1975 C.ar    1  UNL1        0.0176
     14 C         142.4641  139.1813  158.2926 C.ar    1  UNL1        0.0015
     15 C         141.6842  138.0140  157.7643 C.ar    1  UNL1        0.0001
     16 C         140.2423  137.8432  158.1409 C.ar    1  UNL1        0.0015
     17 C         139.5803  138.8396  159.0458 C.ar    1  UNL1        0.0176
     18 N         138.9641  142.5527  157.3554 N.pl3   1  UNL1       -0.2875
     19 C         138.2445  142.2058  156.0857 C.3     1  UNL1        0.0926
     20 C         137.1016  141.2986  156.4336 C.3     1  UNL1        0.0236
     21 C         137.1148  141.0849  157.9182 C.3     1  UNL1        0.0293
     22 C         138.2658  141.8599  158.4879 C.3     1  UNL1        0.1314
     23 C         141.4391  143.0723  156.7605 C.ar    1  UNL1        0.1310
     24 C         142.6451  143.9566  156.8771 C.ar    1  UNL1        0.1396
     25 N         143.9142  143.5919  156.1657 N.pl3   1  UNL1       -0.3420
     26 N         142.5819  145.2057  157.7052 N.ar    1  UNL1       -0.2087
     27 C         141.3127  145.5705  158.4167 C.ar    1  UNL1        0.2012
     28 N         140.1068  144.6862  158.3001 N.ar    1  UNL1       -0.2082
     29 C         140.1700  143.4370  157.4720 C.ar    1  UNL1        0.1461
     30 H         143.9558  142.7721  155.6222 H       1  UNL1        0.1437
     31 H         144.7057  144.1724  156.2422 H       1  UNL1        0.1437
     32 N         141.5654  140.5740  155.1044 N.1     1  UNL1       -0.1906
     33 C         141.5023  141.8231  155.9324 C.1     1  UNL1        0.1061
     34 C         140.8540  141.2134  164.8230 C.1     1  UNL1       -0.0642
     35 C         141.9012  140.2869  165.3661 C.1     1  UNL1       -0.0864
     36 C         142.9484  139.3604  165.9092 C.3     1  UNL1        0.0769
     37 C         144.0661  138.8914  165.0256 C.3     1  UNL1        0.0235
     38 C         144.8974  139.8888  164.2746 C.3     1  UNL1        0.0863
     39 C         144.4515  140.3736  162.9269 C.2     1  UNL1        0.2258
     40 O         144.3509  139.4125  161.7797 O.2     1  UNL1       -0.2749
     41 N         144.1063  141.8195  162.7264 N.am    1  UNL1       -0.2744
     42 C         143.6605  142.3043  161.3788 C.3     1  UNL1        0.1255
     43 C         143.3152  143.7502  161.1783 C.3     1  UNL1        0.1636
     44 O         143.4159  144.7113  162.3255 O.3     1  UNL1       -0.3501
     45 C         143.8617  144.2265  163.6732 C.3     1  UNL1        0.1636
     46 C         144.2069  142.7806  163.8737 C.3     1  UNL1        0.1255
@<TRIPOS>BOND
     1    32    33    3
     2    33    23    1
     3    23    24   ar
     4    24    25    1
     5    24    26   ar
     6    26    27   ar
     7    27    28   ar
     8    28    29   ar
     9    29    18    1
    10    18    19    1
    11    19    20    1
    12    20    21    1
    13    21    22    1
    14    22     1    1
    15     1     2   ar
    16     2     3   ar
    17     3     4   ar
    18     4     5   ar
    19     5     6   ar
    20     6     7   ar
    21     7    34    1
    22    34    35    3
    23    35    36    1
    24    36    37    1
    25    37    38    1
    26    38    39    1
    27    39    40    2
    28    39    41   am
    29    41    42    1
    30    42    43    1
    31    43    44    1
    32    44    45    1
    33    45    46    1
    34     7     8   ar
    35     8     9   ar
    36     9    10    2
    37     9    11   ar
    38    11    12    1
    39    12    13   ar
    40    13    14   ar
    41    14    15   ar
    42    15    16   ar
    43    16    17   ar
    44    29    23   ar
    45    22    18    1
    46    11     1   ar
    47    17    12   ar
    48     8     3   ar
    49    46    41    1
    50    25    30    1
    51    25    31    1
@<TRIPOS>MOLECULE
*****
 46 51 0 0 0
SMALL
GASTEIGER

@<TRIPOS>ATOM
      1 C         143.0107  141.1942  158.1698 C.ar    1  UNL1        0.1445
      2 N         143.6389  140.0177  158.8563 N.ar    1  UNL1       -0.2301
      3 C         143.4099  139.7944  160.3218 C.ar    1  UNL1        0.0878
      4 C         144.0381  138.6179  161.0083 C.ar    1  UNL1        0.0193
      5 C         143.8091  138.3946  162.4738 C.ar    1  UNL1        0.0022
      6 C         142.9520  139.3477  163.2528 C.ar    1  UNL1        0.0085
      7 C         142.3238  140.5242  162.5663 C.ar    1  UNL1        0.0477
      8 C         142.5528  140.7475  161.1008 C.ar    1  UNL1        0.0818
      9 C         141.9246  141.9240  160.4143 C.ar    1  UNL1        0.2676
     10 O         141.0675  142.8772  161.1933 O.2     1  UNL1       -0.2665
     11 N         142.1536  142.1474  158.9488 N.ar    1  UNL1       -0.2613
     12 C         141.5255  143.3239  158.2622 C.ar    1  UNL1        0.0680
     13 C         142.2304  144.6478  158.2474 C.ar    1  UNL1        0.0176
     14 C         141.6023  145.8243  157.5609 C.ar    1  UNL1        0.0015
     15 C         140.2693  145.6769  156.8892 C.ar    1  UNL1        0.0001
     16 C         139.5644  144.3529  156.9040 C.ar    1  UNL1        0.0015
     17 C         140.1924  143.1764  157.5905 C.ar    1  UNL1        0.0176
     18 N         142.5185  140.7281  155.5842 N.pl3   1  UNL1       -0.2875
     19 C         143.0631  141.2540  154.2891 C.3     1  UNL1        0.0926
     20 C         144.1208  142.2684  154.6090 C.3     1  UNL1        0.0236
     21 C         144.2300  142.3695  156.1016 C.3     1  UNL1        0.0293
     22 C         143.2397  141.4176  156.7043 C.3     1  UNL1        0.1314
     23 C         141.8020  138.2395  155.7922 C.ar    1  UNL1        0.1310
     24 C         140.7254  137.2057  155.9409 C.ar    1  UNL1        0.1396
     25 N         141.0855  135.7509  156.0002 N.pl3   1  UNL1       -0.3420
     26 N         139.2885  137.6269  156.0303 N.ar    1  UNL1       -0.2087
     27 C         138.9283  139.0819  155.9710 C.ar    1  UNL1        0.2012
     28 N         140.0049  140.1155  155.8223 N.ar    1  UNL1       -0.2082
     29 C         141.4418  139.6944  155.7329 C.ar    1  UNL1        0.1461
     30 H         142.0286  135.4744  155.9415 H       1  UNL1        0.1437
     31 H         140.3788  135.0724  156.0978 H       1  UNL1        0.1437
     32 N         144.6759  137.3972  155.6133 N.1     1  UNL1       -0.1906
     33 C         143.2389  137.8184  155.7028 C.1     1  UNL1        0.1061
     34 C         141.4667  141.4774  163.3453 C.1     1  UNL1       -0.0642
     35 C         140.6096  142.4305  164.1243 C.1     1  UNL1       -0.0864
     36 C         139.7525  143.3837  164.9033 C.3     1  UNL1        0.0769
     37 C         138.3060  143.5557  164.5455 C.3     1  UNL1        0.0235
     38 C         137.5681  142.4487  163.8526 C.3     1  UNL1        0.0863
     39 C         137.8184  142.1754  162.3990 C.2     1  UNL1        0.2258
     40 O         137.7048  143.2855  161.3967 O.2     1  UNL1       -0.2749
     41 N         138.1825  140.7919  161.9479 N.am    1  UNL1       -0.2744
     42 C         138.4329  140.5186  160.4945 C.3     1  UNL1        0.1255
     43 C         138.7969  139.1351  160.0434 C.3     1  UNL1        0.1636
     44 O         138.9106  138.0250  161.0457 O.3     1  UNL1       -0.3501
     45 C         138.6602  138.2984  162.4992 C.3     1  UNL1        0.1636
     46 C         138.2962  139.6818  162.9503 C.3     1  UNL1        0.1255
@<TRIPOS>BOND
     1    32    33    3
     2    33    23    1
     3    23    24   ar
     4    24    25    1
     5    24    26   ar
     6    26    27   ar
     7    27    28   ar
     8    28    29   ar
     9    29    18    1
    10    18    19    1
    11    19    20    1
    12    20    21    1
    13    21    22    1
    14    22     1    1
    15     1     2   ar
    16     2     3   ar
    17     3     4   ar
    18     4     5   ar
    19     5     6   ar
    20     6     7   ar
    21     7    34    1
    22    34    35    3
    23    35    36    1
    24    36    37    1
    25    37    38    1
    26    38    39    1
    27    39    40    2
    28    39    41   am
    29    41    42    1
    30    42    43    1
    31    43    44    1
    32    44    45    1
    33    45    46    1
    34     7     8   ar
    35     8     9   ar
    36     9    10    2
    37     9    11   ar
    38    11    12    1
    39    12    13   ar
    40    13    14   ar
    41    14    15   ar
    42    15    16   ar
    43    16    17   ar
    44    29    23   ar
    45    22    18    1
    46    11     1   ar
    47    17    12   ar
    48     8     3   ar
    49    46    41    1
    50    25    30    1
    51    25    31    1
@<TRIPOS>MOLECULE
*****
 46 51 0 0 0
SMALL
GASTEIGER

@<TRIPOS>ATOM
      1 C         142.4074  142.3490  159.7506 C.ar    1  UNL1        0.1445
      2 N         141.7755  143.7081  159.6917 N.ar    1  UNL1       -0.2301
      3 C         140.9961  144.2244  160.8648 C.ar    1  UNL1        0.0878
      4 C         140.3641  145.5834  160.8058 C.ar    1  UNL1        0.0193
      5 C         139.5847  146.0996  161.9788 C.ar    1  UNL1        0.0022
      6 C         139.4374  145.2568  163.2109 C.ar    1  UNL1        0.0085
      7 C         140.0693  143.8977  163.2698 C.ar    1  UNL1        0.0477
      8 C         140.8487  143.3815  162.0968 C.ar    1  UNL1        0.0818
      9 C         141.4807  142.0224  162.1557 C.ar    1  UNL1        0.2676
     10 O         141.3334  141.1795  163.3877 O.2     1  UNL1       -0.2665
     11 N         142.2601  141.5062  160.9827 N.ar    1  UNL1       -0.2613
     12 C         142.8921  140.1471  161.0416 C.ar    1  UNL1        0.0680
     13 C         144.2205  139.9662  161.7144 C.ar    1  UNL1        0.0176
     14 C         144.8525  138.6072  161.7734 C.ar    1  UNL1        0.0015
     15 C         144.1562  137.4290  161.1595 C.ar    1  UNL1        0.0001
     16 C         142.8279  137.6099  160.4866 C.ar    1  UNL1        0.0015
     17 C         142.1958  138.9689  160.4277 C.ar    1  UNL1        0.0176
     18 N         142.6400  141.0093  157.4493 N.pl3   1  UNL1       -0.2875
     19 C         143.7651  140.7169  156.5012 C.3     1  UNL1        0.0926
     20 C         145.0072  141.3597  157.0435 C.3     1  UNL1        0.0236
     21 C         144.6498  142.0494  158.3267 C.3     1  UNL1        0.0293
     22 C         143.1869  141.8328  158.5775 C.3     1  UNL1        0.1314
     23 C         140.9134  139.1092  157.0516 C.ar    1  UNL1        0.1310
     24 C         139.4913  138.6573  156.8984 C.ar    1  UNL1        0.1396
     25 N         139.1866  137.2091  156.6539 N.pl3   1  UNL1       -0.3420
     26 N         138.3738  139.6537  156.9896 N.ar    1  UNL1       -0.2087
     27 C         138.6784  141.1021  157.2341 C.ar    1  UNL1        0.2012
     28 N         140.1004  141.5538  157.3873 N.ar    1  UNL1       -0.2082
     29 C         141.2179  140.5574  157.2961 C.ar    1  UNL1        0.1461
     30 H         139.9200  136.5551  156.5940 H       1  UNL1        0.1437
     31 H         138.2532  136.9126  156.5533 H       1  UNL1        0.1437
     32 N         143.1484  137.1163  156.8692 N.1     1  UNL1       -0.1906
     33 C         142.0309  138.1128  156.9604 C.1     1  UNL1        0.1061
     34 C         139.9220  143.0549  164.5019 C.1     1  UNL1       -0.0642
     35 C         139.7746  142.2120  165.7339 C.1     1  UNL1       -0.0864
     36 C         139.6273  141.3692  166.9659 C.3     1  UNL1        0.0769
     37 C         139.2024  139.9355  166.8474 C.3     1  UNL1        0.0235
     38 C         138.2367  139.5256  165.7753 C.3     1  UNL1        0.0863
     39 C         138.6707  138.5761  164.6982 C.2     1  UNL1        0.2258
     40 O         139.2630  137.2474  165.0636 O.2     1  UNL1       -0.2749
     41 N         138.5123  138.9554  163.2556 N.am    1  UNL1       -0.2744
     42 C         138.9462  138.0060  162.1784 C.3     1  UNL1        0.1255
     43 C         138.7878  138.3853  160.7359 C.3     1  UNL1        0.1636
     44 O         138.1954  139.7141  160.3704 O.3     1  UNL1       -0.3501
     45 C         137.7615  140.6635  161.4476 C.3     1  UNL1        0.1636
     46 C         137.9199  140.2842  162.8902 C.3     1  UNL1        0.1255
@<TRIPOS>BOND
     1    32    33    3
     2    33    23    1
     3    23    24   ar
     4    24    25    1
     5    24    26   ar
     6    26    27   ar
     7    27    28   ar
     8    28    29   ar
     9    29    18    1
    10    18    19    1
    11    19    20    1
    12    20    21    1
    13    21    22    1
    14    22     1    1
    15     1     2   ar
    16     2     3   ar
    17     3     4   ar
    18     4     5   ar
    19     5     6   ar
    20     6     7   ar
    21     7    34    1
    22    34    35    3
    23    35    36    1
    24    36    37    1
    25    37    38    1
    26    38    39    1
    27    39    40    2
    28    39    41   am
    29    41    42    1
    30    42    43    1
    31    43    44    1
    32    44    45    1
    33    45    46    1
    34     7     8   ar
    35     8     9   ar
    36     9    10    2
    37     9    11   ar
    38    11    12    1
    39    12    13   ar
    40    13    14   ar
    41    14    15   ar
    42    15    16   ar
    43    16    17   ar
    44    29    23   ar
    45    22    18    1
    46    11     1   ar
    47    17    12   ar
    48     8     3   ar
    49    46    41    1
    50    25    30    1
    51    25    31    1
@<TRIPOS>MOLECULE
*****
 46 51 0 0 0
SMALL
GASTEIGER

@<TRIPOS>ATOM
      1 C         141.4861  142.9045  162.2442 C.ar    1  UNL1        0.1445
      2 N         140.6675  143.8359  161.4001 N.ar    1  UNL1       -0.2301
      3 C         141.0504  144.0856  159.9714 C.ar    1  UNL1        0.0878
      4 C         140.2318  145.0169  159.1274 C.ar    1  UNL1        0.0193
      5 C         140.6147  145.2666  157.6988 C.ar    1  UNL1        0.0022
      6 C         141.8162  144.5850  157.1142 C.ar    1  UNL1        0.0085
      7 C         142.6348  143.6537  157.9582 C.ar    1  UNL1        0.0477
      8 C         142.2519  143.4040  159.3868 C.ar    1  UNL1        0.0818
      9 C         143.0705  142.4726  160.2309 C.ar    1  UNL1        0.2676
     10 O         144.2720  141.7909  159.6464 O.2     1  UNL1       -0.2665
     11 N         142.6876  142.2229  161.6596 N.ar    1  UNL1       -0.2613
     12 C         143.5063  141.2915  162.5037 C.ar    1  UNL1        0.0680
     13 C         144.5493  141.8410  163.4311 C.ar    1  UNL1        0.0176
     14 C         145.3679  140.9097  164.2752 C.ar    1  UNL1        0.0015
     15 C         145.1435  139.4289  164.1918 C.ar    1  UNL1        0.0001
     16 C         144.1005  138.8795  163.2644 C.ar    1  UNL1        0.0015
     17 C         143.2819  139.8108  162.4203 C.ar    1  UNL1        0.0176
     18 N         140.3183  141.4829  164.1832 N.pl3   1  UNL1       -0.2875
     19 C         140.1680  141.6369  165.6678 C.3     1  UNL1        0.0926
     20 C         140.8602  142.9040  166.0748 C.3     1  UNL1        0.0236
     21 C         141.4382  143.5330  164.8418 C.3     1  UNL1        0.0293
     22 C         141.1033  142.6548  163.6729 C.3     1  UNL1        0.1314
     23 C         138.6152  140.5888  162.4368 C.ar    1  UNL1        0.1310
     24 C         138.0753  139.4610  161.6083 C.ar    1  UNL1        0.1396
     25 N         136.9122  139.6946  160.6903 N.pl3   1  UNL1       -0.3420
     26 N         138.6984  138.0995  161.6977 N.ar    1  UNL1       -0.2087
     27 C         139.8616  137.8658  162.6156 C.ar    1  UNL1        0.2012
     28 N         140.4015  138.9936  163.4441 N.ar    1  UNL1       -0.2082
     29 C         139.7783  140.3551  163.3547 C.ar    1  UNL1        0.1461
     30 H         136.5032  140.5882  160.6316 H       1  UNL1        0.1437
     31 H         136.5579  138.9543  160.1466 H       1  UNL1        0.1437
     32 N         137.3689  143.3119  162.2581 N.1     1  UNL1       -0.1906
     33 C         137.9921  141.9503  162.3474 C.1     1  UNL1        0.1061
     34 C         143.8363  142.9720  157.3736 C.1     1  UNL1       -0.0642
     35 C         145.0378  142.2904  156.7890 C.1     1  UNL1       -0.0864
     36 C         146.2393  141.6087  156.2044 C.3     1  UNL1        0.0769
     37 C         146.1005  140.7782  154.9631 C.3     1  UNL1        0.0235
     38 C         144.7741  140.1733  154.6099 C.3     1  UNL1        0.0863
     39 C         144.2616  138.9899  155.3761 C.2     1  UNL1        0.2258
     40 O         145.1239  137.7740  155.5433 O.2     1  UNL1       -0.2749
     41 N         142.8868  139.0224  155.9750 N.am    1  UNL1       -0.2744
     42 C         142.3743  137.8391  156.7412 C.3     1  UNL1        0.1255
     43 C         140.9994  137.8717  157.3401 C.3     1  UNL1        0.1636
     44 O         140.1371  139.0875  157.1729 O.3     1  UNL1       -0.3501
     45 C         140.6496  140.2709  156.4067 C.3     1  UNL1        0.1636
     46 C         142.0244  140.2384  155.8078 C.3     1  UNL1        0.1255
@<TRIPOS>BOND
     1    32    33    3
     2    33    23    1
     3    23    24   ar
     4    24    25    1
     5    24    26   ar
     6    26    27   ar
     7    27    28   ar
     8    28    29   ar
     9    29    18    1
    10    18    19    1
    11    19    20    1
    12    20    21    1
    13    21    22    1
    14    22     1    1
    15     1     2   ar
    16     2     3   ar
    17     3     4   ar
    18     4     5   ar
    19     5     6   ar
    20     6     7   ar
    21     7    34    1
    22    34    35    3
    23    35    36    1
    24    36    37    1
    25    37    38    1
    26    38    39    1
    27    39    40    2
    28    39    41   am
    29    41    42    1
    30    42    43    1
    31    43    44    1
    32    44    45    1
    33    45    46    1
    34     7     8   ar
    35     8     9   ar
    36     9    10    2
    37     9    11   ar
    38    11    12    1
    39    12    13   ar
    40    13    14   ar
    41    14    15   ar
    42    15    16   ar
    43    16    17   ar
    44    29    23   ar
    45    22    18    1
    46    11     1   ar
    47    17    12   ar
    48     8     3   ar
    49    46    41    1
    50    25    30    1
    51    25    31    1
