@<TRIPOS>MOLECULE
*****
 29 32 0 0 0
SMALL
GASTEIGER

@<TRIPOS>ATOM
      1 N         141.9114  139.4332  166.6284 N.ar    1  UNL1       -0.2290
      2 N         142.6054  138.2934  165.9435 N.ar    1  UNL1       -0.1635
      3 C         141.8721  138.0037  164.6675 C.ar    1  UNL1        0.1220
      4 C         140.7249  138.9645  164.5637 C.ar    1  UNL1        0.0400
      5 C         139.6613  139.1490  163.5223 C.ar    1  UNL1        0.0200
      6 C         138.6219  140.2172  163.6927 C.ar    1  UNL1        0.0763
      7 C         138.6463  141.1007  164.9046 C.ar    1  UNL1        0.1549
      8 F         137.6070  142.1687  165.0751 F       1  UNL1       -0.2028
      9 C         139.7099  140.9161  165.9461 C.ar    1  UNL1        0.0501
     10 C         140.7492  139.8480  165.7756 C.ar    1  UNL1        0.0866
     11 C         143.1422  141.6198  169.5898 C.ar    1  UNL1        0.0843
     12 C         142.8991  141.4166  168.1236 C.ar    1  UNL1        0.0307
     13 C         142.3097  140.0500  167.9364 C.ar    1  UNL1        0.0899
     14 C         142.1886  139.4085  169.2869 C.ar    1  UNL1        0.0547
     15 S         142.7031  140.3786  170.3087 S.2     1  UNL1       -0.0803
     16 C         145.7905  144.2617  170.9151 C.3     1  UNL1        0.1110
     17 N         145.2101  143.0333  170.2795 N.am    1  UNL1       -0.2987
     18 C         143.7225  142.8482  170.2254 C.2     1  UNL1        0.2520
     19 O         142.8154  143.8916  170.8070 O.2     1  UNL1       -0.2696
     20 H         145.8056  142.3485  169.8978 H       1  UNL1        0.1498
     21 N         137.5583  140.4017  162.6513 N.pl3   1  UNL1       -0.3101
     22 H         136.6129  140.2519  162.8813 H       1  UNL1        0.1523
     23 C         137.9353  140.8145  161.2593 C.ar    1  UNL1        0.0591
     24 C         138.0279  139.7862  160.1712 C.ar    1  UNL1        0.0155
     25 C         138.4048  140.1991  158.7792 C.ar    1  UNL1        0.0013
     26 C         138.6891  141.6402  158.4754 C.ar    1  UNL1        0.0009
     27 C         138.5965  142.6685  159.5636 C.ar    1  UNL1        0.0126
     28 C         138.2196  142.2557  160.9555 C.ar    1  UNL1        0.0710
     29 CL        138.1269  143.2840  162.0436 Cl      1  UNL1       -0.0810
@<TRIPOS>BOND
     1    16    17    1
     2    17    18   am
     3    18    19    2
     4    18    11    1
     5    11    12   ar
     6    12    13   ar
     7    13     1    1
     8     1     2   ar
     9     2     3   ar
    10     3     4   ar
    11     4     5   ar
    12     5     6   ar
    13     6    21    1
    14    21    23    1
    15    23    24   ar
    16    24    25   ar
    17    25    26   ar
    18    26    27   ar
    19    27    28   ar
    20    28    29    1
    21     6     7   ar
    22     7     8    1
    23     7     9   ar
    24     9    10   ar
    25    13    14   ar
    26    14    15   ar
    27    15    11   ar
    28    10     1   ar
    29    10     4   ar
    30    28    23   ar
    31    17    20    1
    32    21    22    1
@<TRIPOS>MOLECULE
*****
 29 32 0 0 0
SMALL
GASTEIGER

@<TRIPOS>ATOM
      1 N         143.6588  143.4683  162.1858 N.ar    1  UNL1       -0.2290
      2 N         143.8325  144.8320  162.7861 N.ar    1  UNL1       -0.1635
      3 C         143.7534  144.6952  164.2778 C.ar    1  UNL1        0.1220
      4 C         143.5309  143.2471  164.5993 C.ar    1  UNL1        0.0400
      5 C         143.3739  142.5209  165.9024 C.ar    1  UNL1        0.0200
      6 C         143.1584  141.0365  165.9126 C.ar    1  UNL1        0.0763
      7 C         143.0999  140.2782  164.6197 C.ar    1  UNL1        0.1549
      8 F         142.8845  138.7938  164.6298 F       1  UNL1       -0.2028
      9 C         143.2569  141.0044  163.3166 C.ar    1  UNL1        0.0501
     10 C         143.4724  142.4888  163.3064 C.ar    1  UNL1        0.0866
     11 C         144.3810  142.3643  158.5354 C.ar    1  UNL1        0.0843
     12 C         144.8002  142.5054  159.9688 C.ar    1  UNL1        0.0307
     13 C         143.6696  143.1416  160.7219 C.ar    1  UNL1        0.0899
     14 C         142.5516  143.3936  159.7540 C.ar    1  UNL1        0.0547
     15 S         142.9913  142.9132  158.4027 S.2     1  UNL1       -0.0803
     16 C         146.9938  142.0562  155.5643 C.3     1  UNL1        0.1110
     17 N         146.1683  142.6431  156.6705 N.am    1  UNL1       -0.2987
     18 C         145.2065  141.7773  157.4292 C.2     1  UNL1        0.2520
     19 O         145.0703  140.3246  157.0814 O.2     1  UNL1       -0.2696
     20 H         146.2577  143.5966  156.8987 H       1  UNL1        0.1498
     21 N         143.0015  140.3103  167.2157 N.pl3   1  UNL1       -0.3101
     22 H         143.6243  139.5859  167.4537 H       1  UNL1        0.1523
     23 C         141.8957  140.6879  168.1562 C.ar    1  UNL1        0.0591
     24 C         140.5275  140.0987  167.9803 C.ar    1  UNL1        0.0155
     25 C         139.4217  140.4763  168.9208 C.ar    1  UNL1        0.0013
     26 C         139.6840  141.4431  170.0372 C.ar    1  UNL1        0.0009
     27 C         141.0522  142.0324  170.2131 C.ar    1  UNL1        0.0126
     28 C         142.1580  141.6548  169.2726 C.ar    1  UNL1        0.0710
     29 CL        143.5261  142.2440  169.4485 Cl      1  UNL1       -0.0810
@<TRIPOS>BOND
     1    16    17    1
     2    17    18   am
     3    18    19    2
     4    18    11    1
     5    11    12   ar
     6    12    13   ar
     7    13     1    1
     8     1     2   ar
     9     2     3   ar
    10     3     4   ar
    11     4     5   ar
    12     5     6   ar
    13     6    21    1
    14    21    23    1
    15    23    24   ar
    16    24    25   ar
    17    25    26   ar
    18    26    27   ar
    19    27    28   ar
    20    28    29    1
    21     6     7   ar
    22     7     8    1
    23     7     9   ar
    24     9    10   ar
    25    13    14   ar
    26    14    15   ar
    27    15    11   ar
    28    10     1   ar
    29    10     4   ar
    30    28    23   ar
    31    17    20    1
    32    21    22    1
@<TRIPOS>MOLECULE
*****
 29 32 0 0 0
SMALL
GASTEIGER

@<TRIPOS>ATOM
      1 N         140.3861  139.6906  167.3876 N.ar    1  UNL1       -0.2290
      2 N         138.8999  139.5052  167.3055 N.ar    1  UNL1       -0.1635
      3 C         138.5820  138.8939  165.9732 C.ar    1  UNL1        0.1220
      4 C         139.8717  138.7014  165.2318 C.ar    1  UNL1        0.0400
      5 C         140.1749  138.1415  163.8737 C.ar    1  UNL1        0.0200
      6 C         141.5931  138.0739  163.3898 C.ar    1  UNL1        0.0763
      7 C         142.7081  138.5662  164.2640 C.ar    1  UNL1        0.1549
      8 F         144.1263  138.4987  163.7801 F       1  UNL1       -0.2028
      9 C         142.4049  139.1262  165.6222 C.ar    1  UNL1        0.0501
     10 C         140.9868  139.1938  166.1061 C.ar    1  UNL1        0.0866
     11 C         142.5215  141.7359  169.9021 C.ar    1  UNL1        0.0843
     12 C         141.9426  141.5376  168.5325 C.ar    1  UNL1        0.0307
     13 C         141.1395  140.2708  168.5477 C.ar    1  UNL1        0.0899
     14 C         141.2219  139.6861  169.9266 C.ar    1  UNL1        0.0547
     15 S         142.0760  140.5916  170.7637 S.2     1  UNL1       -0.0803
     16 C         145.7550  143.9158  170.6383 C.3     1  UNL1        0.1110
     17 N         144.8837  142.7739  170.2062 N.am    1  UNL1       -0.2987
     18 C         143.3927  142.8778  170.3342 C.2     1  UNL1        0.2520
     19 O         142.7732  144.1237  170.8943 O.2     1  UNL1       -0.2696
     20 H         145.2904  141.9562  169.8386 H       1  UNL1        0.1498
     21 N         141.8963  137.5139  162.0317 N.pl3   1  UNL1       -0.3101
     22 H         141.9609  136.5398  161.9040 H       1  UNL1        0.1523
     23 C         142.1009  138.4380  160.8680 C.ar    1  UNL1        0.0591
     24 C         143.4643  138.9946  160.5831 C.ar    1  UNL1        0.0155
     25 C         143.6689  139.9188  159.4194 C.ar    1  UNL1        0.0013
     26 C         142.5102  140.2862  158.5407 C.ar    1  UNL1        0.0009
     27 C         141.1467  139.7296  158.8257 C.ar    1  UNL1        0.0126
     28 C         140.9421  138.8055  159.9893 C.ar    1  UNL1        0.0710
     29 CL        139.5786  138.2489  160.2743 Cl      1  UNL1       -0.0810
@<TRIPOS>BOND
     1    16    17    1
     2    17    18   am
     3    18    19    2
     4    18    11    1
     5    11    12   ar
     6    12    13   ar
     7    13     1    1
     8     1     2   ar
     9     2     3   ar
    10     3     4   ar
    11     4     5   ar
    12     5     6   ar
    13     6    21    1
    14    21    23    1
    15    23    24   ar
    16    24    25   ar
    17    25    26   ar
    18    26    27   ar
    19    27    28   ar
    20    28    29    1
    21     6     7   ar
    22     7     8    1
    23     7     9   ar
    24     9    10   ar
    25    13    14   ar
    26    14    15   ar
    27    15    11   ar
    28    10     1   ar
    29    10     4   ar
    30    28    23   ar
    31    17    20    1
    32    21    22    1
@<TRIPOS>MOLECULE
*****
 29 32 0 0 0
SMALL
GASTEIGER

@<TRIPOS>ATOM
      1 N         141.5445  144.0890  159.7199 N.ar    1  UNL1       -0.2290
      2 N         142.9777  143.6542  159.8016 N.ar    1  UNL1       -0.1635
      3 C         143.2621  143.2593  161.2205 C.ar    1  UNL1        0.1220
      4 C         142.0046  143.4500  162.0157 C.ar    1  UNL1        0.0400
      5 C         141.6890  143.2229  163.4644 C.ar    1  UNL1        0.0200
      6 C         140.3118  143.5086  163.9858 C.ar    1  UNL1        0.0763
      7 C         139.2502  144.0214  163.0584 C.ar    1  UNL1        0.1549
      8 F         137.8731  144.3071  163.5797 F       1  UNL1       -0.2028
      9 C         139.5659  144.2485  161.6096 C.ar    1  UNL1        0.0501
     10 C         140.9430  143.9627  161.0883 C.ar    1  UNL1        0.0866
     11 C         139.9049  146.0104  156.7727 C.ar    1  UNL1        0.0843
     12 C         140.6751  145.9952  158.0599 C.ar    1  UNL1        0.0307
     13 C         140.8368  144.5662  158.4865 C.ar    1  UNL1        0.0899
     14 C         140.1667  143.6982  157.4630 C.ar    1  UNL1        0.0547
     15 S         139.5908  144.5908  156.4038 S.2     1  UNL1       -0.0803
     16 C         138.4080  149.5780  155.8891 C.3     1  UNL1        0.1110
     17 N         138.7958  148.3576  156.6701 N.am    1  UNL1       -0.2987
     18 C         139.5171  147.2308  155.9917 C.2     1  UNL1        0.2520
     19 O         139.8506  147.3246  154.5323 O.2     1  UNL1       -0.2696
     20 H         138.5770  148.2961  157.6280 H       1  UNL1        0.1498
     21 N         139.9963  143.2815  165.4345 N.pl3   1  UNL1       -0.3101
     22 H         140.0727  144.0235  166.0771 H       1  UNL1        0.1523
     23 C         139.5642  141.9241  165.9041 C.ar    1  UNL1        0.0591
     24 C         138.6295  141.1029  165.0662 C.ar    1  UNL1        0.0155
     25 C         138.1975  139.7454  165.5359 C.ar    1  UNL1        0.0013
     26 C         138.7002  139.2091  166.8434 C.ar    1  UNL1        0.0009
     27 C         139.6349  140.0302  167.6813 C.ar    1  UNL1        0.0126
     28 C         140.0669  141.3877  167.2117 C.ar    1  UNL1        0.0710
     29 CL        141.0016  142.2088  168.0496 Cl      1  UNL1       -0.0810
@<TRIPOS>BOND
     1    16    17    1
     2    17    18   am
     3    18    19    2
     4    18    11    1
     5    11    12   ar
     6    12    13   ar
     7    13     1    1
     8     1     2   ar
     9     2     3   ar
    10     3     4   ar
    11     4     5   ar
    12     5     6   ar
    13     6    21    1
    14    21    23    1
    15    23    24   ar
    16    24    25   ar
    17    25    26   ar
    18    26    27   ar
    19    27    28   ar
    20    28    29    1
    21     6     7   ar
    22     7     8    1
    23     7     9   ar
    24     9    10   ar
    25    13    14   ar
    26    14    15   ar
    27    15    11   ar
    28    10     1   ar
    29    10     4   ar
    30    28    23   ar
    31    17    20    1
    32    21    22    1
@<TRIPOS>MOLECULE
*****
 29 32 0 0 0
SMALL
GASTEIGER

@<TRIPOS>ATOM
      1 N         140.1687  145.0754  159.8846 N.ar    1  UNL1       -0.2290
      2 N         140.3027  145.9776  161.0754 N.ar    1  UNL1       -0.1635
      3 C         139.6723  145.2908  162.2505 C.ar    1  UNL1        0.1220
      4 C         139.1487  143.9641  161.7860 C.ar    1  UNL1        0.0400
      5 C         138.4323  142.8601  162.5056 C.ar    1  UNL1        0.0200
      6 C         138.0225  141.6229  161.7629 C.ar    1  UNL1        0.0763
      7 C         138.3293  141.4898  160.3006 C.ar    1  UNL1        0.1549
      8 F         137.9196  140.2526  159.5580 F       1  UNL1       -0.2028
      9 C         139.0458  142.5938  159.5811 C.ar    1  UNL1        0.0501
     10 C         139.4555  143.8310  160.3237 C.ar    1  UNL1        0.0866
     11 C         140.8120  146.2351  156.2367 C.ar    1  UNL1        0.0843
     12 C         139.9679  146.2185  157.4767 C.ar    1  UNL1        0.0307
     13 C         140.6614  145.3664  158.4980 C.ar    1  UNL1        0.0899
     14 C         141.9340  144.8564  157.8894 C.ar    1  UNL1        0.0547
     15 S         142.0271  145.3934  156.4919 S.2     1  UNL1       -0.0803
     16 C         139.7909  149.1433  153.7369 C.3     1  UNL1        0.1110
     17 N         140.1065  148.4132  155.0085 N.am    1  UNL1       -0.2987
     18 C         140.4964  146.9653  154.9651 C.2     1  UNL1        0.2520
     19 O         140.5707  146.2478  153.6500 O.2     1  UNL1       -0.2696
     20 H         140.0578  148.8842  155.8717 H       1  UNL1        0.1498
     21 N         137.3060  140.5189  162.4825 N.pl3   1  UNL1       -0.3101
     22 H         136.3556  140.3443  162.2944 H       1  UNL1        0.1523
     23 C         138.0377  139.6809  163.4886 C.ar    1  UNL1        0.0591
     24 C         138.0707  140.0971  164.9293 C.ar    1  UNL1        0.0155
     25 C         138.8025  139.2590  165.9355 C.ar    1  UNL1        0.0013
     26 C         139.5011  138.0048  165.5009 C.ar    1  UNL1        0.0009
     27 C         139.4681  137.5887  164.0601 C.ar    1  UNL1        0.0126
     28 C         138.7364  138.4267  163.0540 C.ar    1  UNL1        0.0710
     29 CL        138.7033  138.0105  161.6133 Cl      1  UNL1       -0.0810
@<TRIPOS>BOND
     1    16    17    1
     2    17    18   am
     3    18    19    2
     4    18    11    1
     5    11    12   ar
     6    12    13   ar
     7    13     1    1
     8     1     2   ar
     9     2     3   ar
    10     3     4   ar
    11     4     5   ar
    12     5     6   ar
    13     6    21    1
    14    21    23    1
    15    23    24   ar
    16    24    25   ar
    17    25    26   ar
    18    26    27   ar
    19    27    28   ar
    20    28    29    1
    21     6     7   ar
    22     7     8    1
    23     7     9   ar
    24     9    10   ar
    25    13    14   ar
    26    14    15   ar
    27    15    11   ar
    28    10     1   ar
    29    10     4   ar
    30    28    23   ar
    31    17    20    1
    32    21    22    1
@<TRIPOS>MOLECULE
*****
 29 32 0 0 0
SMALL
GASTEIGER

@<TRIPOS>ATOM
      1 N         139.8638  144.0815  162.8050 N.ar    1  UNL1       -0.2290
      2 N         138.9361  144.8996  163.6536 N.ar    1  UNL1       -0.1635
      3 C         139.1789  144.5362  165.0885 C.ar    1  UNL1        0.1220
      4 C         140.2567  143.4936  165.1268 C.ar    1  UNL1        0.0400
      5 C         140.9073  142.7639  166.2644 C.ar    1  UNL1        0.0200
      6 C         141.9812  141.7530  165.9906 C.ar    1  UNL1        0.0763
      7 C         142.4045  141.4720  164.5793 C.ar    1  UNL1        0.1549
      8 F         143.4784  140.4612  164.3056 F       1  UNL1       -0.2028
      9 C         141.7538  142.2018  163.4417 C.ar    1  UNL1        0.0501
     10 C         140.6799  143.2126  163.7155 C.ar    1  UNL1        0.0866
     11 C         140.4363  144.8627  159.0463 C.ar    1  UNL1        0.0843
     12 C         140.5509  145.2366  160.4945 C.ar    1  UNL1        0.0307
     13 C         139.9587  144.1247  161.3086 C.ar    1  UNL1        0.0899
     14 C         139.4780  143.0635  160.3637 C.ar    1  UNL1        0.0547
     15 S         139.7731  143.5196  158.9656 S.2     1  UNL1       -0.0803
     16 C         140.4130  146.8649  155.6199 C.3     1  UNL1        0.1110
     17 N         139.9465  146.0406  156.7830 N.am    1  UNL1       -0.2987
     18 C         140.9028  145.6870  157.8833 C.2     1  UNL1        0.2520
     19 O         142.3256  146.1578  157.8204 O.2     1  UNL1       -0.2696
     20 H         139.0127  145.7315  156.8242 H       1  UNL1        0.1498
     21 N         142.6318  141.0233  167.1282 N.pl3   1  UNL1       -0.3101
     22 H         143.4979  140.5747  166.9942 H       1  UNL1        0.1523
     23 C         141.9629  140.9770  168.4700 C.ar    1  UNL1        0.0591
     24 C         140.6788  140.2212  168.6422 C.ar    1  UNL1        0.0155
     25 C         140.0098  140.1749  169.9840 C.ar    1  UNL1        0.0013
     26 C         140.6251  140.8845  171.1536 C.ar    1  UNL1        0.0009
     27 C         141.9092  141.6404  170.9814 C.ar    1  UNL1        0.0126
     28 C         142.5781  141.6866  169.6396 C.ar    1  UNL1        0.0710
     29 CL        143.8623  142.4425  169.4675 Cl      1  UNL1       -0.0810
@<TRIPOS>BOND
     1    16    17    1
     2    17    18   am
     3    18    19    2
     4    18    11    1
     5    11    12   ar
     6    12    13   ar
     7    13     1    1
     8     1     2   ar
     9     2     3   ar
    10     3     4   ar
    11     4     5   ar
    12     5     6   ar
    13     6    21    1
    14    21    23    1
    15    23    24   ar
    16    24    25   ar
    17    25    26   ar
    18    26    27   ar
    19    27    28   ar
    20    28    29    1
    21     6     7   ar
    22     7     8    1
    23     7     9   ar
    24     9    10   ar
    25    13    14   ar
    26    14    15   ar
    27    15    11   ar
    28    10     1   ar
    29    10     4   ar
    30    28    23   ar
    31    17    20    1
    32    21    22    1
@<TRIPOS>MOLECULE
*****
 29 32 0 0 0
SMALL
GASTEIGER

@<TRIPOS>ATOM
      1 N         140.5285  145.1983  160.1016 N.ar    1  UNL1       -0.2290
      2 N         139.5845  145.9681  160.9769 N.ar    1  UNL1       -0.1635
      3 C         140.0301  145.8003  162.3993 C.ar    1  UNL1        0.1220
      4 C         141.2496  144.9268  162.4030 C.ar    1  UNL1        0.0400
      5 C         142.1193  144.4222  163.5161 C.ar    1  UNL1        0.0200
      6 C         143.2971  143.5454  163.2091 C.ar    1  UNL1        0.0763
      7 C         143.6051  143.1734  161.7890 C.ar    1  UNL1        0.1549
      8 F         144.7828  142.2967  161.4819 F       1  UNL1       -0.2028
      9 C         142.7353  143.6780  160.6759 C.ar    1  UNL1        0.0501
     10 C         141.5576  144.5547  160.9829 C.ar    1  UNL1        0.0866
     11 C         140.3087  145.6728  156.2555 C.ar    1  UNL1        0.0843
     12 C         140.3552  146.2369  157.6447 C.ar    1  UNL1        0.0307
     13 C         140.4562  145.0908  158.6071 C.ar    1  UNL1        0.0899
     14 C         140.4722  143.8185  157.8129 C.ar    1  UNL1        0.0547
     15 S         140.3810  144.1781  156.3595 S.2     1  UNL1       -0.0803
     16 C         140.0020  148.7513  153.7699 C.3     1  UNL1        0.1110
     17 N         140.1030  147.9598  155.0400 N.am    1  UNL1       -0.2987
     18 C         140.2077  146.4644  154.9854 C.2     1  UNL1        0.2520
     19 O         140.2114  145.7607  153.6608 O.2     1  UNL1       -0.2696
     20 H         140.1006  148.4217  155.9094 H       1  UNL1        0.1498
     21 N         144.1668  143.0408  164.3221 N.pl3   1  UNL1       -0.3101
     22 H         144.8092  143.6462  164.7580 H       1  UNL1        0.1523
     23 C         144.0577  141.6138  164.7711 C.ar    1  UNL1        0.0591
     24 C         144.9335  140.5642  164.1536 C.ar    1  UNL1        0.0155
     25 C         144.8243  139.1371  164.6026 C.ar    1  UNL1        0.0013
     26 C         143.8394  138.7596  165.6690 C.ar    1  UNL1        0.0009
     27 C         142.9635  139.8092  166.2865 C.ar    1  UNL1        0.0126
     28 C         143.0727  141.2362  165.8376 C.ar    1  UNL1        0.0710
     29 CL        142.1968  142.2858  166.4550 Cl      1  UNL1       -0.0810
@<TRIPOS>BOND
     1    16    17    1
     2    17    18   am
     3    18    19    2
     4    18    11    1
     5    11    12   ar
     6    12    13   ar
     7    13     1    1
     8     1     2   ar
     9     2     3   ar
    10     3     4   ar
    11     4     5   ar
    12     5     6   ar
    13     6    21    1
    14    21    23    1
    15    23    24   ar
    16    24    25   ar
    17    25    26   ar
    18    26    27   ar
    19    27    28   ar
    20    28    29    1
    21     6     7   ar
    22     7     8    1
    23     7     9   ar
    24     9    10   ar
    25    13    14   ar
    26    14    15   ar
    27    15    11   ar
    28    10     1   ar
    29    10     4   ar
    30    28    23   ar
    31    17    20    1
    32    21    22    1
@<TRIPOS>MOLECULE
*****
 29 32 0 0 0
SMALL
GASTEIGER

@<TRIPOS>ATOM
      1 N         139.3048  143.6025  162.3890 N.ar    1  UNL1       -0.2290
      2 N         139.0000  144.9168  163.0444 N.ar    1  UNL1       -0.1635
      3 C         139.2136  144.7591  164.5207 C.ar    1  UNL1        0.1220
      4 C         139.6503  143.3473  164.7777 C.ar    1  UNL1        0.0400
      5 C         140.0040  142.6204  166.0412 C.ar    1  UNL1        0.0200
      6 C         140.4140  141.1785  165.9873 C.ar    1  UNL1        0.0763
      7 C         140.4703  140.4636  164.6698 C.ar    1  UNL1        0.1549
      8 F         140.8803  139.0217  164.6158 F       1  UNL1       -0.2028
      9 C         140.1167  141.1906  163.4062 C.ar    1  UNL1        0.0501
     10 C         139.7067  142.6325  163.4603 C.ar    1  UNL1        0.0866
     11 C         138.5296  142.3825  158.7867 C.ar    1  UNL1        0.0843
     12 C         138.2587  142.3669  160.2620 C.ar    1  UNL1        0.0307
     13 C         139.2221  143.3095  160.9202 C.ar    1  UNL1        0.0899
     14 C         140.0884  143.9078  159.8518 C.ar    1  UNL1        0.0547
     15 S         139.6604  143.3349  158.5332 S.2     1  UNL1       -0.0803
     16 C         136.1050  141.4704  155.7802 C.3     1  UNL1        0.1110
     17 N         136.8365  142.2671  156.8194 N.am    1  UNL1       -0.2987
     18 C         137.7981  141.5858  157.7475 C.2     1  UNL1        0.2520
     19 O         138.0280  140.1077  157.6363 O.2     1  UNL1       -0.2696
     20 H         136.6855  143.2372  156.8924 H       1  UNL1        0.1498
     21 N         140.7676  140.4515  167.2507 N.pl3   1  UNL1       -0.3101
     22 H         140.5727  139.4903  167.3367 H       1  UNL1        0.1523
     23 C         141.4182  141.1890  168.3833 C.ar    1  UNL1        0.0591
     24 C         142.8304  141.6764  168.2480 C.ar    1  UNL1        0.0155
     25 C         143.4810  142.4139  169.3807 C.ar    1  UNL1        0.0013
     26 C         142.7194  142.6641  170.6485 C.ar    1  UNL1        0.0009
     27 C         141.3073  142.1767  170.7838 C.ar    1  UNL1        0.0126
     28 C         140.6567  141.4392  169.6512 C.ar    1  UNL1        0.0710
     29 CL        139.2445  140.9518  169.7865 Cl      1  UNL1       -0.0810
@<TRIPOS>BOND
     1    16    17    1
     2    17    18   am
     3    18    19    2
     4    18    11    1
     5    11    12   ar
     6    12    13   ar
     7    13     1    1
     8     1     2   ar
     9     2     3   ar
    10     3     4   ar
    11     4     5   ar
    12     5     6   ar
    13     6    21    1
    14    21    23    1
    15    23    24   ar
    16    24    25   ar
    17    25    26   ar
    18    26    27   ar
    19    27    28   ar
    20    28    29    1
    21     6     7   ar
    22     7     8    1
    23     7     9   ar
    24     9    10   ar
    25    13    14   ar
    26    14    15   ar
    27    15    11   ar
    28    10     1   ar
    29    10     4   ar
    30    28    23   ar
    31    17    20    1
    32    21    22    1
@<TRIPOS>MOLECULE
*****
 29 32 0 0 0
SMALL
GASTEIGER

@<TRIPOS>ATOM
      1 N         141.9129  138.8321  161.7581 N.ar    1  UNL1       -0.2290
      2 N         141.1785  137.5286  161.8656 N.ar    1  UNL1       -0.1635
      3 C         141.0739  137.1742  163.3194 C.ar    1  UNL1        0.1220
      4 C         141.7436  138.2586  164.1103 C.ar    1  UNL1        0.0400
      5 C         141.9483  138.4454  165.5845 C.ar    1  UNL1        0.0200
      6 C         142.6715  139.6569  166.0937 C.ar    1  UNL1        0.0763
      7 C         143.1900  140.6816  165.1288 C.ar    1  UNL1        0.1549
      8 F         143.9132  141.8931  165.6380 F       1  UNL1       -0.2028
      9 C         142.9853  140.4948  163.6545 C.ar    1  UNL1        0.0501
     10 C         142.2621  139.2833  163.1453 C.ar    1  UNL1        0.0866
     11 C         143.4756  140.6234  158.6897 C.ar    1  UNL1        0.0843
     12 C         143.6159  139.9030  159.9980 C.ar    1  UNL1        0.0307
     13 C         142.2405  139.5572  160.4865 C.ar    1  UNL1        0.0899
     14 C         141.2501  140.0638  159.4802 C.ar    1  UNL1        0.0547
     15 S         142.0135  140.7227  158.3697 S.2     1  UNL1       -0.0803
     16 C         146.2791  140.8485  155.8898 C.3     1  UNL1        0.1110
     17 N         145.1547  140.3203  156.7304 N.am    1  UNL1       -0.2987
     18 C         144.6000  141.1515  157.8491 C.2     1  UNL1        0.2520
     19 O         145.1698  142.5110  158.1271 O.2     1  UNL1       -0.2696
     20 H         144.7808  139.4280  156.5479 H       1  UNL1        0.1498
     21 N         142.8761  139.8437  167.5679 N.pl3   1  UNL1       -0.3101
     22 H         143.6661  139.4548  168.0084 H       1  UNL1        0.1523
     23 C         141.8772  140.6230  168.3709 C.ar    1  UNL1        0.0591
     24 C         140.5064  140.0629  168.6101 C.ar    1  UNL1        0.0155
     25 C         139.5075  140.8423  169.4132 C.ar    1  UNL1        0.0013
     26 C         139.8794  142.1815  169.9770 C.ar    1  UNL1        0.0009
     27 C         141.2502  142.7416  169.7378 C.ar    1  UNL1        0.0126
     28 C         142.2491  141.9623  168.9348 C.ar    1  UNL1        0.0710
     29 CL        143.6199  142.5223  168.6956 Cl      1  UNL1       -0.0810
@<TRIPOS>BOND
     1    16    17    1
     2    17    18   am
     3    18    19    2
     4    18    11    1
     5    11    12   ar
     6    12    13   ar
     7    13     1    1
     8     1     2   ar
     9     2     3   ar
    10     3     4   ar
    11     4     5   ar
    12     5     6   ar
    13     6    21    1
    14    21    23    1
    15    23    24   ar
    16    24    25   ar
    17    25    26   ar
    18    26    27   ar
    19    27    28   ar
    20    28    29    1
    21     6     7   ar
    22     7     8    1
    23     7     9   ar
    24     9    10   ar
    25    13    14   ar
    26    14    15   ar
    27    15    11   ar
    28    10     1   ar
    29    10     4   ar
    30    28    23   ar
    31    17    20    1
    32    21    22    1
