@<TRIPOS>MOLECULE
*****
 29 32 0 0 0
SMALL
GASTEIGER

@<TRIPOS>ATOM
      1 N         140.2415  144.4794  161.3234 N.ar    1  UNL1       -0.2270
      2 N         139.7962  145.0093  159.9926 N.ar    1  UNL1       -0.1694
      3 C         140.9691  144.9620  159.0588 C.ar    1  UNL1        0.0802
      4 C         142.1394  144.4029  159.8124 C.ar    1  UNL1        0.0356
      5 C         141.6897  144.1047  161.2120 C.ar    1  UNL1        0.0846
      6 C         140.9713  145.3974  157.6234 C.3     1  UNL1        0.0467
      7 C         141.9329  144.7777  156.6531 C.3     1  UNL1        0.0333
      8 C         141.9352  145.2130  155.2178 C.3     1  UNL1        0.0931
      9 C         142.3166  145.2915  153.7692 C.3     1  UNL1        0.0296
     10 C         143.0270  144.1852  155.1799 C.3     1  UNL1        0.0296
     11 O         140.9758  146.2682  154.7526 O.3     1  UNL1       -0.3633
     12 C         140.0143  146.8879  155.7227 C.3     1  UNL1        0.0931
     13 C         138.9217  147.7646  156.2591 C.3     1  UNL1        0.0296
     14 C         139.6371  147.6277  154.4736 C.3     1  UNL1        0.0296
     15 C         140.0120  146.4525  157.1581 C.3     1  UNL1        0.0333
     16 C         138.1405  143.5162  162.5100 C.ar    1  UNL1        0.1562
     17 C         137.2875  143.3842  163.7367 C.ar    1  UNL1        0.0385
     18 C         137.6824  144.0834  165.0036 C.ar    1  UNL1        0.0032
     19 C         138.9304  144.9146  165.0438 C.ar    1  UNL1        0.0017
     20 C         139.7834  145.0466  163.8171 C.ar    1  UNL1        0.0222
     21 C         139.3885  144.3474  162.5502 C.ar    1  UNL1        0.1166
     22 C         138.3153  141.4668  160.9226 C.3     1  UNL1        0.2525
     23 O         137.7456  142.8169  161.2430 O.3     1  UNL1       -0.4699
     24 C         142.5391  143.5322  162.3078 C.ar    1  UNL1        0.0256
     25 C         142.8603  142.0805  162.5073 C.ar    1  UNL1        0.0378
     26 S         143.7361  141.9619  163.7192 S.2     1  UNL1       -0.0750
     27 C         143.9562  143.3402  164.2688 C.ar    1  UNL1        0.0870
     28 CL        144.7727  143.6872  165.4783 Cl      1  UNL1       -0.0752
     29 C         143.2164  144.3106  163.3965 C.ar    1  UNL1        0.0200
@<TRIPOS>BOND
     1    22    23    1
     2    23    16    1
     3    16    17   ar
     4    17    18   ar
     5    18    19   ar
     6    19    20   ar
     7    20    21   ar
     8    21     1    1
     9     1     2   ar
    10     2     3   ar
    11     3     6    1
    12     6     7    1
    13     7     8    1
    14     8     9    1
    15     8    10    1
    16     8    11    1
    17    11    12    1
    18    12    13    1
    19    12    14    1
    20    12    15    1
    21     3     4   ar
    22     4     5   ar
    23     5    24    1
    24    24    25   ar
    25    25    26   ar
    26    26    27   ar
    27    27    28    1
    28    27    29   ar
    29    21    16   ar
    30     5     1   ar
    31    29    24   ar
    32    15     6    1
@<TRIPOS>MOLECULE
*****
 29 32 0 0 0
SMALL
GASTEIGER

@<TRIPOS>ATOM
      1 N         140.2588  144.4717  161.2925 N.ar    1  UNL1       -0.2270
      2 N         139.8127  145.0098  159.9653 N.ar    1  UNL1       -0.1694
      3 C         140.9817  144.9565  159.0269 C.ar    1  UNL1        0.0802
      4 C         142.1503  144.3854  159.7741 C.ar    1  UNL1        0.0356
      5 C         141.7035  144.0858  161.1743 C.ar    1  UNL1        0.0846
      6 C         140.9821  145.3969  157.5930 C.3     1  UNL1        0.0467
      7 C         140.0223  146.4539  157.1328 C.3     1  UNL1        0.0333
      8 C         140.0226  146.8943  155.6990 C.3     1  UNL1        0.0931
      9 C         139.6439  147.6386  154.4529 C.3     1  UNL1        0.0296
     10 C         138.9310  147.7693  156.2399 C.3     1  UNL1        0.0296
     11 O         140.9828  146.2778  154.7253 O.3     1  UNL1       -0.3633
     12 C         141.9425  145.2209  155.1854 C.3     1  UNL1        0.0931
     13 C         143.0341  144.1929  155.1425 C.3     1  UNL1        0.0296
     14 C         142.3220  145.3044  153.7366 C.3     1  UNL1        0.0296
     15 C         141.9422  144.7805  156.6193 C.3     1  UNL1        0.0333
     16 C         138.1620  143.5098  162.4876 C.ar    1  UNL1        0.1562
     17 C         137.3125  143.3803  163.7170 C.ar    1  UNL1        0.0385
     18 C         137.7104  144.0832  164.9809 C.ar    1  UNL1        0.0032
     19 C         138.9577  144.9156  165.0154 C.ar    1  UNL1        0.0017
     20 C         139.8072  145.0452  163.7860 C.ar    1  UNL1        0.0222
     21 C         139.4093  144.3422  162.5220 C.ar    1  UNL1        0.1166
     22 C         138.2828  141.4289  160.9366 C.3     1  UNL1        0.2525
     23 O         137.7641  142.8068  161.2236 O.3     1  UNL1       -0.4699
     24 C         142.5523  143.5026  162.2649 C.ar    1  UNL1        0.0256
     25 C         142.8783  142.0498  162.4470 C.ar    1  UNL1        0.0378
     26 S         143.7517  141.9191  163.6595 S.2     1  UNL1       -0.0750
     27 C         143.9655  143.2912  164.2268 C.ar    1  UNL1        0.0870
     28 CL        144.7779  143.6259  165.4424 Cl      1  UNL1       -0.0752
     29 C         143.2243  144.2698  163.3649 C.ar    1  UNL1        0.0200
@<TRIPOS>BOND
     1    22    23    1
     2    23    16    1
     3    16    17   ar
     4    17    18   ar
     5    18    19   ar
     6    19    20   ar
     7    20    21   ar
     8    21     1    1
     9     1     2   ar
    10     2     3   ar
    11     3     6    1
    12     6     7    1
    13     7     8    1
    14     8     9    1
    15     8    10    1
    16     8    11    1
    17    11    12    1
    18    12    13    1
    19    12    14    1
    20    12    15    1
    21     3     4   ar
    22     4     5   ar
    23     5    24    1
    24    24    25   ar
    25    25    26   ar
    26    26    27   ar
    27    27    28    1
    28    27    29   ar
    29    21    16   ar
    30     5     1   ar
    31    29    24   ar
    32    15     6    1
@<TRIPOS>MOLECULE
*****
 29 32 0 0 0
SMALL
GASTEIGER

@<TRIPOS>ATOM
      1 N         141.9382  144.2559  161.1688 N.ar    1  UNL1       -0.2270
      2 N         142.3999  144.5473  159.7717 N.ar    1  UNL1       -0.1694
      3 C         141.2028  144.9493  158.9622 C.ar    1  UNL1        0.0802
      4 C         140.0011  144.9063  159.8591 C.ar    1  UNL1        0.0356
      5 C         140.4557  144.4778  161.2228 C.ar    1  UNL1        0.0846
      6 C         141.2065  145.3278  157.5107 C.3     1  UNL1        0.0467
      7 C         142.1876  144.6904  156.5720 C.3     1  UNL1        0.0333
      8 C         142.1914  145.0688  155.1206 C.3     1  UNL1        0.0931
      9 C         142.5816  145.0980  153.6725 C.3     1  UNL1        0.0296
     10 C         143.3042  144.0630  155.1304 C.3     1  UNL1        0.0296
     11 O         141.2141  146.0848  154.6079 O.3     1  UNL1       -0.3633
     12 C         140.2331  146.7222  155.5466 C.3     1  UNL1        0.0931
     13 C         139.1190  147.5965  156.0409 C.3     1  UNL1        0.0296
     14 C         139.8500  147.4043  154.2667 C.3     1  UNL1        0.0296
     15 C         140.2293  146.3437  156.9980 C.3     1  UNL1        0.0333
     16 C         143.2180  142.3821  162.4341 C.ar    1  UNL1        0.1562
     17 C         144.0863  141.9454  163.5766 C.ar    1  UNL1        0.0385
     18 C         144.5432  142.9460  164.5963 C.ar    1  UNL1        0.0032
     19 C         144.1318  144.3833  164.4736 C.ar    1  UNL1        0.0017
     20 C         143.2635  144.8199  163.3311 C.ar    1  UNL1        0.0222
     21 C         142.8066  143.8193  162.3113 C.ar    1  UNL1        0.1166
     22 C         141.4386  140.6929  161.5792 C.3     1  UNL1        0.2525
     23 O         142.7610  141.3814  161.4142 O.3     1  UNL1       -0.4699
     24 C         139.5812  144.3020  162.4288 C.ar    1  UNL1        0.0256
     25 C         138.5060  143.2693  162.5952 C.ar    1  UNL1        0.0378
     26 S         137.8887  143.4571  163.9493 S.2     1  UNL1       -0.0750
     27 C         138.5823  144.6058  164.6198 C.ar    1  UNL1        0.0870
     28 CL        138.2826  145.1387  165.9895 Cl      1  UNL1       -0.0752
     29 C         139.6283  145.1279  163.6800 C.ar    1  UNL1        0.0200
@<TRIPOS>BOND
     1    22    23    1
     2    23    16    1
     3    16    17   ar
     4    17    18   ar
     5    18    19   ar
     6    19    20   ar
     7    20    21   ar
     8    21     1    1
     9     1     2   ar
    10     2     3   ar
    11     3     6    1
    12     6     7    1
    13     7     8    1
    14     8     9    1
    15     8    10    1
    16     8    11    1
    17    11    12    1
    18    12    13    1
    19    12    14    1
    20    12    15    1
    21     3     4   ar
    22     4     5   ar
    23     5    24    1
    24    24    25   ar
    25    25    26   ar
    26    26    27   ar
    27    27    28    1
    28    27    29   ar
    29    21    16   ar
    30     5     1   ar
    31    29    24   ar
    32    15     6    1
@<TRIPOS>MOLECULE
*****
 29 32 0 0 0
SMALL
GASTEIGER

@<TRIPOS>ATOM
      1 N         141.9608  144.2040  161.2673 N.ar    1  UNL1       -0.2270
      2 N         142.4267  144.4804  159.8686 N.ar    1  UNL1       -0.1694
      3 C         141.2335  144.8829  159.0536 C.ar    1  UNL1        0.0802
      4 C         140.0301  144.8551  159.9486 C.ar    1  UNL1        0.0356
      5 C         140.4796  144.4355  161.3168 C.ar    1  UNL1        0.0846
      6 C         141.2421  145.2488  157.5989 C.3     1  UNL1        0.0467
      7 C         140.2738  146.2682  157.0762 C.3     1  UNL1        0.0333
      8 C         140.2823  146.6342  155.6217 C.3     1  UNL1        0.0931
      9 C         139.9064  147.3084  154.3355 C.3     1  UNL1        0.0296
     10 C         139.1748  147.5218  156.1070 C.3     1  UNL1        0.0296
     11 O         141.2593  145.9807  154.6897 O.3     1  UNL1       -0.3633
     12 C         142.2276  144.9613  155.2123 C.3     1  UNL1        0.0931
     13 C         143.3322  143.9466  155.2322 C.3     1  UNL1        0.0296
     14 C         142.6198  144.9749  153.7645 C.3     1  UNL1        0.0296
     15 C         142.2190  144.5954  156.6669 C.3     1  UNL1        0.0333
     16 C         143.1922  142.3263  162.5743 C.ar    1  UNL1        0.1562
     17 C         144.0558  141.8941  163.7220 C.ar    1  UNL1        0.0385
     18 C         144.5517  142.9074  164.7106 C.ar    1  UNL1        0.0032
     19 C         144.1840  144.3529  164.5514 C.ar    1  UNL1        0.0017
     20 C         143.3203  144.7851  163.4037 C.ar    1  UNL1        0.0222
     21 C         142.8245  143.7718  162.4151 C.ar    1  UNL1        0.1166
     22 C         141.3544  140.6711  161.7787 C.3     1  UNL1        0.2525
     23 O         142.6963  141.3130  161.5856 O.3     1  UNL1       -0.4699
     24 C         139.6020  144.2756  162.5227 C.ar    1  UNL1        0.0256
     25 C         138.5427  143.2301  162.7098 C.ar    1  UNL1        0.0378
     26 S         137.9156  143.4414  164.0559 S.2     1  UNL1       -0.0750
     27 C         138.5873  144.6174  164.7009 C.ar    1  UNL1        0.0870
     28 CL        138.2722  145.1792  166.0555 Cl      1  UNL1       -0.0752
     29 C         139.6296  145.1329  163.7532 C.ar    1  UNL1        0.0200
@<TRIPOS>BOND
     1    22    23    1
     2    23    16    1
     3    16    17   ar
     4    17    18   ar
     5    18    19   ar
     6    19    20   ar
     7    20    21   ar
     8    21     1    1
     9     1     2   ar
    10     2     3   ar
    11     3     6    1
    12     6     7    1
    13     7     8    1
    14     8     9    1
    15     8    10    1
    16     8    11    1
    17    11    12    1
    18    12    13    1
    19    12    14    1
    20    12    15    1
    21     3     4   ar
    22     4     5   ar
    23     5    24    1
    24    24    25   ar
    25    25    26   ar
    26    26    27   ar
    27    27    28    1
    28    27    29   ar
    29    21    16   ar
    30     5     1   ar
    31    29    24   ar
    32    15     6    1
@<TRIPOS>MOLECULE
*****
 29 32 0 0 0
SMALL
GASTEIGER

@<TRIPOS>ATOM
      1 N         142.4435  143.4966  160.6051 N.ar    1  UNL1       -0.2270
      2 N         142.6545  143.8886  159.1727 N.ar    1  UNL1       -0.1694
      3 C         141.4666  144.6916  158.7320 C.ar    1  UNL1        0.0802
      4 C         140.5214  144.7959  159.8921 C.ar    1  UNL1        0.0356
      5 C         141.1252  144.0574  161.0497 C.ar    1  UNL1        0.0846
      6 C         141.2602  145.2859  157.3703 C.3     1  UNL1        0.0467
      7 C         142.1113  144.8377  156.2194 C.3     1  UNL1        0.0333
      8 C         141.9049  145.4319  154.8578 C.3     1  UNL1        0.0931
      9 C         142.0878  145.6961  153.3926 C.3     1  UNL1        0.0296
     10 C         143.0261  144.4811  154.5597 C.3     1  UNL1        0.0296
     11 O         140.8472  146.4746  154.6471 O.3     1  UNL1       -0.3633
     12 C         139.9961  146.9228  155.7979 C.3     1  UNL1        0.0931
     13 C         138.9466  147.6673  156.5689 C.3     1  UNL1        0.0296
     14 C         139.4252  147.7757  154.7039 C.3     1  UNL1        0.0296
     15 C         140.2025  146.3285  157.1596 C.3     1  UNL1        0.0333
     16 C         144.2440  143.3617  162.4732 C.ar    1  UNL1        0.1562
     17 C         145.1859  142.5513  163.3135 C.ar    1  UNL1        0.0385
     18 C         145.2691  141.0654  163.1260 C.ar    1  UNL1        0.0032
     19 C         144.4104  140.3899  162.0982 C.ar    1  UNL1        0.0017
     20 C         143.4685  141.2003  161.2579 C.ar    1  UNL1        0.0222
     21 C         143.3854  142.6862  161.4454 C.ar    1  UNL1        0.1166
     22 C         143.5669  145.4130  163.9167 C.3     1  UNL1        0.2525
     23 O         144.1608  144.8476  162.6607 O.3     1  UNL1       -0.4699
     24 C         140.5173  143.9062  162.4127 C.ar    1  UNL1        0.0256
     25 C         140.5379  142.6648  163.2545 C.ar    1  UNL1        0.0378
     26 S         139.8155  142.9611  164.5352 S.2     1  UNL1       -0.0750
     27 C         139.3485  144.3857  164.4850 C.ar    1  UNL1        0.0870
     28 CL        138.5822  145.1008  165.5581 Cl      1  UNL1       -0.0752
     29 C         139.7822  144.9698  163.1733 C.ar    1  UNL1        0.0200
@<TRIPOS>BOND
     1    22    23    1
     2    23    16    1
     3    16    17   ar
     4    17    18   ar
     5    18    19   ar
     6    19    20   ar
     7    20    21   ar
     8    21     1    1
     9     1     2   ar
    10     2     3   ar
    11     3     6    1
    12     6     7    1
    13     7     8    1
    14     8     9    1
    15     8    10    1
    16     8    11    1
    17    11    12    1
    18    12    13    1
    19    12    14    1
    20    12    15    1
    21     3     4   ar
    22     4     5   ar
    23     5    24    1
    24    24    25   ar
    25    25    26   ar
    26    26    27   ar
    27    27    28    1
    28    27    29   ar
    29    21    16   ar
    30     5     1   ar
    31    29    24   ar
    32    15     6    1
@<TRIPOS>MOLECULE
*****
 29 32 0 0 0
SMALL
GASTEIGER

@<TRIPOS>ATOM
      1 N         140.4392  140.4423  164.7234 N.ar    1  UNL1       -0.2270
      2 N         140.3700  140.9259  163.3052 N.ar    1  UNL1       -0.1694
      3 C         141.4902  141.9006  163.0927 C.ar    1  UNL1        0.0802
      4 C         142.2517  142.0194  164.3796 C.ar    1  UNL1        0.0356
      5 C         141.6021  141.1181  165.3874 C.ar    1  UNL1        0.0846
      6 C         141.7953  142.6287  161.8173 C.3     1  UNL1        0.0467
      7 C         141.0472  143.8821  161.4717 C.3     1  UNL1        0.0333
      8 C         141.3523  144.6102  160.1964 C.3     1  UNL1        0.0931
      9 C         141.2834  145.6456  159.1132 C.3     1  UNL1        0.0296
     10 C         140.2751  145.4951  160.7501 C.3     1  UNL1        0.0296
     11 O         142.4056  144.0850  159.2665 O.3     1  UNL1       -0.3633
     12 C         143.1537  142.8317  159.6119 C.3     1  UNL1        0.0931
     13 C         144.1250  141.6939  159.5012 C.3     1  UNL1        0.0296
     14 C         143.7962  143.1647  158.2980 C.3     1  UNL1        0.0296
     15 C         142.8486  142.1035  160.8874 C.3     1  UNL1        0.0333
     16 C         139.4058  138.0606  164.8242 C.ar    1  UNL1        0.1562
     17 C         138.4755  137.0743  165.4657 C.ar    1  UNL1        0.0385
     18 C         137.6480  137.4834  166.6480 C.ar    1  UNL1        0.0032
     19 C         137.7509  138.8787  167.1888 C.ar    1  UNL1        0.0017
     20 C         138.6813  139.8650  166.5473 C.ar    1  UNL1        0.0222
     21 C         139.5087  139.4559  165.3650 C.ar    1  UNL1        0.1166
     22 C         141.7193  137.5021  163.7820 C.3     1  UNL1        0.2525
     23 O         140.2334  137.6516  163.6418 O.3     1  UNL1       -0.4699
     24 C         142.0388  140.9262  166.8096 C.ar    1  UNL1        0.0256
     25 C         142.4965  142.0062  167.7446 C.ar    1  UNL1        0.0378
     26 S         142.8350  141.3682  169.0593 S.2     1  UNL1       -0.0750
     27 C         142.5865  139.8940  168.9368 C.ar    1  UNL1        0.0870
     28 CL        142.7937  138.8723  170.0153 Cl      1  UNL1       -0.0752
     29 C         142.0944  139.6209  167.5464 C.ar    1  UNL1        0.0200
@<TRIPOS>BOND
     1    22    23    1
     2    23    16    1
     3    16    17   ar
     4    17    18   ar
     5    18    19   ar
     6    19    20   ar
     7    20    21   ar
     8    21     1    1
     9     1     2   ar
    10     2     3   ar
    11     3     6    1
    12     6     7    1
    13     7     8    1
    14     8     9    1
    15     8    10    1
    16     8    11    1
    17    11    12    1
    18    12    13    1
    19    12    14    1
    20    12    15    1
    21     3     4   ar
    22     4     5   ar
    23     5    24    1
    24    24    25   ar
    25    25    26   ar
    26    26    27   ar
    27    27    28    1
    28    27    29   ar
    29    21    16   ar
    30     5     1   ar
    31    29    24   ar
    32    15     6    1
@<TRIPOS>MOLECULE
*****
 29 32 0 0 0
SMALL
GASTEIGER

@<TRIPOS>ATOM
      1 N         139.5559  143.7891  160.7609 N.ar    1  UNL1       -0.2270
      2 N         139.9215  144.8399  159.7549 N.ar    1  UNL1       -0.1694
      3 C         140.1200  144.1644  158.4304 C.ar    1  UNL1        0.0802
      4 C         139.8771  142.6961  158.6178 C.ar    1  UNL1        0.0356
      5 C         139.5285  142.4641  160.0582 C.ar    1  UNL1        0.0846
      6 C         140.4955  144.8389  157.1442 C.3     1  UNL1        0.0467
      7 C         139.7520  146.0611  156.6933 C.3     1  UNL1        0.0333
      8 C         140.1274  146.7355  155.4073 C.3     1  UNL1        0.0931
      9 C         140.1125  147.7188  154.2745 C.3     1  UNL1        0.0296
     10 C         139.0032  147.6248  155.8491 C.3     1  UNL1        0.0296
     11 O         141.2464  146.1876  154.5720 O.3     1  UNL1       -0.3633
     12 C         141.9900  144.9655  155.0228 C.3     1  UNL1        0.0931
     13 C         142.9838  143.8419  155.0275 C.3     1  UNL1        0.0296
     14 C         142.7105  145.2497  153.7383 C.3     1  UNL1        0.0296
     15 C         141.6145  144.2910  156.3089 C.3     1  UNL1        0.0333
     16 C         140.3535  144.5179  163.1237 C.ar    1  UNL1        0.1562
     17 C         140.0659  144.7510  164.5773 C.ar    1  UNL1        0.0385
     18 C         138.6931  144.4885  165.1217 C.ar    1  UNL1        0.0032
     19 C         137.6079  143.9928  164.2125 C.ar    1  UNL1        0.0017
     20 C         137.8954  143.7597  162.7589 C.ar    1  UNL1        0.0222
     21 C         139.2683  144.0222  162.2145 C.ar    1  UNL1        0.1166
     22 C         142.9000  144.8586  163.5101 C.3     1  UNL1        0.2525
     23 O         141.7264  144.7804  162.5793 O.3     1  UNL1       -0.4699
     24 C         139.2086  141.1398  160.6856 C.ar    1  UNL1        0.0256
     25 C         137.8372  140.5622  160.8751 C.ar    1  UNL1        0.0378
     26 S         137.9849  139.2259  161.5403 S.2     1  UNL1       -0.0750
     27 C         139.4476  138.9776  161.7620 C.ar    1  UNL1        0.0870
     28 CL        140.0485  137.7602  162.3998 Cl      1  UNL1       -0.0752
     29 C         140.2038  140.1604  161.2337 C.ar    1  UNL1        0.0200
@<TRIPOS>BOND
     1    22    23    1
     2    23    16    1
     3    16    17   ar
     4    17    18   ar
     5    18    19   ar
     6    19    20   ar
     7    20    21   ar
     8    21     1    1
     9     1     2   ar
    10     2     3   ar
    11     3     6    1
    12     6     7    1
    13     7     8    1
    14     8     9    1
    15     8    10    1
    16     8    11    1
    17    11    12    1
    18    12    13    1
    19    12    14    1
    20    12    15    1
    21     3     4   ar
    22     4     5   ar
    23     5    24    1
    24    24    25   ar
    25    25    26   ar
    26    26    27   ar
    27    27    28    1
    28    27    29   ar
    29    21    16   ar
    30     5     1   ar
    31    29    24   ar
    32    15     6    1
@<TRIPOS>MOLECULE
*****
 29 32 0 0 0
SMALL
GASTEIGER

@<TRIPOS>ATOM
      1 N         138.7972  141.3965  161.9941 N.ar    1  UNL1       -0.2270
      2 N         138.7798  141.6485  160.5155 N.ar    1  UNL1       -0.1694
      3 C         138.6501  140.3251  159.8213 C.ar    1  UNL1        0.0802
      4 C         138.5873  139.2552  160.8709 C.ar    1  UNL1        0.0356
      5 C         138.6782  139.9175  162.2137 C.ar    1  UNL1        0.0846
      6 C         138.5932  140.1094  158.3380 C.3     1  UNL1        0.0467
      7 C         137.6988  140.9640  157.4896 C.3     1  UNL1        0.0333
      8 C         137.6419  140.7484  156.0063 C.3     1  UNL1        0.0931
      9 C         137.2465  140.9257  154.5702 C.3     1  UNL1        0.0296
     10 C         136.6671  141.8802  156.1425 C.3     1  UNL1        0.0296
     11 O         138.4794  139.6780  155.3714 O.3     1  UNL1       -0.3633
     12 C         139.3738  138.8235  156.2197 C.3     1  UNL1        0.0931
     13 C         140.3684  137.7665  156.5987 C.3     1  UNL1        0.0296
     14 C         139.6623  138.2408  154.8680 C.3     1  UNL1        0.0296
     15 C         139.4307  139.0392  157.7030 C.3     1  UNL1        0.0333
     16 C         140.2326  142.6832  163.7360 C.ar    1  UNL1        0.1562
     17 C         140.3486  143.7270  164.8069 C.ar    1  UNL1        0.0385
     18 C         139.1451  144.5280  165.2069 C.ar    1  UNL1        0.0032
     19 C         137.8257  144.2852  164.5360 C.ar    1  UNL1        0.0017
     20 C         137.7097  143.2414  163.4651 C.ar    1  UNL1        0.0222
     21 C         138.9131  142.4404  163.0651 C.ar    1  UNL1        0.1166
     22 C         141.9164  140.7624  164.2108 C.3     1  UNL1        0.2525
     23 O         141.4361  141.8821  163.3359 O.3     1  UNL1       -0.4699
     24 C         138.6543  139.2226  163.5428 C.ar    1  UNL1        0.0256
     25 C         139.1410  137.8308  163.8190 C.ar    1  UNL1        0.0378
     26 S         138.9271  137.5455  165.2759 S.2     1  UNL1       -0.0750
     27 C         138.3082  138.7609  165.9003 C.ar    1  UNL1        0.0870
     28 CL        137.9251  138.9132  167.3425 Cl      1  UNL1       -0.0752
     29 C         138.1397  139.7974  164.8292 C.ar    1  UNL1        0.0200
@<TRIPOS>BOND
     1    22    23    1
     2    23    16    1
     3    16    17   ar
     4    17    18   ar
     5    18    19   ar
     6    19    20   ar
     7    20    21   ar
     8    21     1    1
     9     1     2   ar
    10     2     3   ar
    11     3     6    1
    12     6     7    1
    13     7     8    1
    14     8     9    1
    15     8    10    1
    16     8    11    1
    17    11    12    1
    18    12    13    1
    19    12    14    1
    20    12    15    1
    21     3     4   ar
    22     4     5   ar
    23     5    24    1
    24    24    25   ar
    25    25    26   ar
    26    26    27   ar
    27    27    28    1
    28    27    29   ar
    29    21    16   ar
    30     5     1   ar
    31    29    24   ar
    32    15     6    1
@<TRIPOS>MOLECULE
*****
 29 32 0 0 0
SMALL
GASTEIGER

@<TRIPOS>ATOM
      1 N         138.7053  142.4530  161.4043 N.ar    1  UNL1       -0.2270
      2 N         138.4909  143.1846  160.1126 N.ar    1  UNL1       -0.1694
      3 C         138.3586  142.1661  159.0193 C.ar    1  UNL1        0.0802
      4 C         138.4914  140.8049  159.6355 C.ar    1  UNL1        0.0356
      5 C         138.7056  140.9822  161.1094 C.ar    1  UNL1        0.0846
      6 C         138.1332  142.4576  157.5653 C.3     1  UNL1        0.0467
      7 C         139.0620  143.3796  156.8324 C.3     1  UNL1        0.0333
      8 C         138.8367  143.6711  155.3784 C.3     1  UNL1        0.0931
      9 C         139.0362  144.2515  154.0097 C.3     1  UNL1        0.0296
     10 C         140.0602  144.5032  155.6242 C.3     1  UNL1        0.0296
     11 O         137.6824  143.0405  154.6573 O.3     1  UNL1       -0.3633
     12 C         136.7536  142.1185  155.3901 C.3     1  UNL1        0.0931
     13 C         135.6083  141.1851  155.6492 C.3     1  UNL1        0.0296
     14 C         136.1305  142.0858  154.0260 C.3     1  UNL1        0.0296
     15 C         136.9790  141.8270  156.8441 C.3     1  UNL1        0.0333
     16 C         140.2520  143.1453  163.3737 C.ar    1  UNL1        0.1562
     17 C         140.4342  143.7739  164.7234 C.ar    1  UNL1        0.0385
     18 C         139.2519  144.3389  165.4533 C.ar    1  UNL1        0.0032
     19 C         137.8874  144.2753  164.8336 C.ar    1  UNL1        0.0017
     20 C         137.7052  143.6467  163.4840 C.ar    1  UNL1        0.0222
     21 C         138.8875  143.0817  162.7540 C.ar    1  UNL1        0.1166
     22 C         142.1135  141.3456  163.1581 C.3     1  UNL1        0.2525
     23 O         141.4344  142.5802  162.6437 O.3     1  UNL1       -0.4699
     24 C         138.8882  139.8819  162.1125 C.ar    1  UNL1        0.0256
     25 C         139.6438  138.6049  161.8926 C.ar    1  UNL1        0.0378
     26 S         139.5698  137.7992  163.1557 S.2     1  UNL1       -0.0750
     27 C         138.7685  138.5782  164.1562 C.ar    1  UNL1        0.0870
     28 CL        138.4451  138.1461  165.5557 Cl      1  UNL1       -0.0752
     29 C         138.3472  139.8654  163.5114 C.ar    1  UNL1        0.0200
@<TRIPOS>BOND
     1    22    23    1
     2    23    16    1
     3    16    17   ar
     4    17    18   ar
     5    18    19   ar
     6    19    20   ar
     7    20    21   ar
     8    21     1    1
     9     1     2   ar
    10     2     3   ar
    11     3     6    1
    12     6     7    1
    13     7     8    1
    14     8     9    1
    15     8    10    1
    16     8    11    1
    17    11    12    1
    18    12    13    1
    19    12    14    1
    20    12    15    1
    21     3     4   ar
    22     4     5   ar
    23     5    24    1
    24    24    25   ar
    25    25    26   ar
    26    26    27   ar
    27    27    28    1
    28    27    29   ar
    29    21    16   ar
    30     5     1   ar
    31    29    24   ar
    32    15     6    1
