@<TRIPOS>MOLECULE
*****
 37 40 0 0 0
SMALL
GASTEIGER

@<TRIPOS>ATOM
      1 C         143.2673  140.1273  161.4578 C.3     1  UNL1        0.0954
      2 C         143.2336  139.7834  159.9981 C.ar    1  UNL1       -0.0045
      3 C         143.7831  140.7464  158.9878 C.ar    1  UNL1       -0.0027
      4 C         143.7494  140.4026  157.5281 C.ar    1  UNL1       -0.0003
      5 C         143.1660  139.0957  157.0788 C.ar    1  UNL1       -0.0000
      6 C         142.6165  138.1328  158.0890 C.ar    1  UNL1       -0.0003
      7 C         142.6503  138.4766  159.5487 C.ar    1  UNL1       -0.0027
      8 N         142.0763  140.7700  162.1046 N.am    1  UNL1       -0.3022
      9 C         141.9852  142.2647  162.1910 C.2     1  UNL1        0.2222
     10 O         143.0852  143.1168  161.6305 O.2     1  UNL1       -0.2751
     11 H         141.3544  140.2108  162.4725 H       1  UNL1        0.1497
     12 C         140.7942  142.9074  162.8379 C.3     1  UNL1        0.0769
     13 C         139.4247  142.6990  162.2625 C.3     1  UNL1        0.0147
     14 C         138.2337  143.3417  162.9094 C.3     1  UNL1        0.0671
     15 C         138.4122  144.1927  164.1316 C.3     1  UNL1        0.2640
     16 F         138.0743  145.0782  165.2943 F       1  UNL1       -0.2043
     17 F         136.9254  144.2919  163.9600 F       1  UNL1       -0.2043
     18 C         139.7817  144.4011  164.7070 C.3     1  UNL1        0.0671
     19 C         140.9727  143.7584  164.0602 C.3     1  UNL1        0.0147
     20 C         144.4921  139.8284  162.2705 C.3     1  UNL1        0.0401
     21 C         144.7574  140.5904  163.5351 C.3     1  UNL1        0.0595
     22 C         145.9467  141.4997  163.6273 C.3     1  UNL1        0.0174
     23 C         141.9852  140.1481  167.0521 C.3     1  UNL1        0.0905
     24 C         142.5563  141.4927  166.7117 C.3     1  UNL1        0.0400
     25 C         143.4803  141.6401  165.5394 C.3     1  UNL1        0.0740
     26 N         143.8333  140.4429  164.7074 N.3     1  UNL1       -0.2738
     27 C         143.2622  139.0983  165.0478 C.3     1  UNL1        0.0740
     28 C         142.3381  138.9510  166.2201 C.3     1  UNL1        0.0400
     29 C         142.8540  140.1960  170.1974 C.3     1  UNL1        0.0738
     30 C         141.4605  140.0227  169.6701 C.ar    1  UNL1        0.1433
     31 N         140.2216  139.8410  170.4961 N.ar    1  UNL1       -0.1337
     32 N         139.0565  139.7066  169.5608 N.ar    1  UNL1       -0.1337
     33 C         139.5754  139.8054  168.1569 C.ar    1  UNL1        0.1425
     34 N         141.0611  140.0007  168.2245 N.ar    1  UNL1       -0.3039
     35 C         138.7529  139.7232  166.9052 C.3     1  UNL1        0.0588
     36 C         137.7840  138.5937  166.7172 C.3     1  UNL1        0.0080
     37 C         138.8994  140.7706  165.8414 C.3     1  UNL1        0.0080
@<TRIPOS>BOND
     1    29    30    1
     2    30    31   ar
     3    31    32   ar
     4    32    33   ar
     5    33    35    1
     6    35    36    1
     7    35    37    1
     8    33    34   ar
     9    34    23    1
    10    23    24    1
    11    24    25    1
    12    25    26    1
    13    26    21    1
    14    21    22    1
    15    21    20    1
    16     1    20    1
    17     1     8    1
    18     8     9   am
    19     9    10    2
    20     9    12    1
    21    12    13    1
    22    13    14    1
    23    14    15    1
    24    15    16    1
    25    15    17    1
    26    15    18    1
    27    18    19    1
    28     1     2    1
    29     2     3   ar
    30     3     4   ar
    31     4     5   ar
    32     5     6   ar
    33     6     7   ar
    34    26    27    1
    35    27    28    1
    36    34    30   ar
    37    28    23    1
    38    19    12    1
    39     7     2   ar
    40     8    11    1
@<TRIPOS>MOLECULE
*****
 37 40 0 0 0
SMALL
GASTEIGER

@<TRIPOS>ATOM
      1 C         141.2471  144.1662  160.9598 C.3     1  UNL1        0.0954
      2 C         141.2965  144.6512  159.5413 C.ar    1  UNL1       -0.0045
      3 C         142.3815  144.1730  158.6225 C.ar    1  UNL1       -0.0027
      4 C         142.4309  144.6580  157.2039 C.ar    1  UNL1       -0.0003
      5 C         141.3953  145.6213  156.7042 C.ar    1  UNL1       -0.0000
      6 C         140.3104  146.0994  157.6229 C.ar    1  UNL1       -0.0003
      7 C         140.2609  145.6144  159.0415 C.ar    1  UNL1       -0.0027
      8 N         140.8284  142.7566  161.2563 N.am    1  UNL1       -0.3022
      9 C         139.3717  142.4069  161.3314 C.2     1  UNL1        0.2222
     10 O         138.3336  143.4668  161.1100 O.2     1  UNL1       -0.2751
     11 H         141.5097  142.0609  161.4017 H       1  UNL1        0.1497
     12 C         138.9531  140.9974  161.6279 C.3     1  UNL1        0.0769
     13 C         139.7206  140.1811  162.6252 C.3     1  UNL1        0.0147
     14 C         139.3019  138.7715  162.9217 C.3     1  UNL1        0.0671
     15 C         138.1158  138.1783  162.2209 C.3     1  UNL1        0.2640
     16 F         137.0700  137.1813  161.8179 F       1  UNL1       -0.2043
     17 F         138.5201  137.0158  163.0782 F       1  UNL1       -0.2043
     18 C         137.3482  138.9946  161.2236 C.3     1  UNL1        0.0671
     19 C         137.7669  140.4041  160.9272 C.3     1  UNL1        0.0147
     20 C         141.6163  145.0906  162.0818 C.3     1  UNL1        0.0401
     21 C         142.5227  144.6149  163.1782 C.3     1  UNL1        0.0595
     22 C         144.0016  144.8461  163.0820 C.3     1  UNL1        0.0174
     23 C         140.8049  142.4938  166.7560 C.3     1  UNL1        0.0905
     24 C         139.9171  143.3285  165.8813 C.3     1  UNL1        0.0400
     25 C         140.4897  144.0355  164.6887 C.3     1  UNL1        0.0740
     26 N         141.9501  143.9078  164.3709 N.3     1  UNL1       -0.2738
     27 C         142.8379  143.0732  165.2456 C.3     1  UNL1        0.0740
     28 C         142.2653  142.3662  166.4382 C.3     1  UNL1        0.0400
     29 C         140.6144  143.6899  169.7863 C.3     1  UNL1        0.0738
     30 C         140.1448  142.3366  169.3415 C.ar    1  UNL1        0.1433
     31 N         139.5051  141.2954  170.2114 N.ar    1  UNL1       -0.1337
     32 N         139.1973  140.1021  169.3562 N.ar    1  UNL1       -0.1337
     33 C         139.6468  140.4058  167.9577 C.ar    1  UNL1        0.1425
     34 N         140.2323  141.7868  167.9486 N.ar    1  UNL1       -0.3039
     35 C         139.5310  139.4894  166.7759 C.3     1  UNL1        0.0588
     36 C         140.7670  139.0136  166.0718 C.3     1  UNL1        0.0080
     37 C         138.1791  139.0489  166.2980 C.3     1  UNL1        0.0080
@<TRIPOS>BOND
     1    29    30    1
     2    30    31   ar
     3    31    32   ar
     4    32    33   ar
     5    33    35    1
     6    35    36    1
     7    35    37    1
     8    33    34   ar
     9    34    23    1
    10    23    24    1
    11    24    25    1
    12    25    26    1
    13    26    21    1
    14    21    22    1
    15    21    20    1
    16     1    20    1
    17     1     8    1
    18     8     9   am
    19     9    10    2
    20     9    12    1
    21    12    13    1
    22    13    14    1
    23    14    15    1
    24    15    16    1
    25    15    17    1
    26    15    18    1
    27    18    19    1
    28     1     2    1
    29     2     3   ar
    30     3     4   ar
    31     4     5   ar
    32     5     6   ar
    33     6     7   ar
    34    26    27    1
    35    27    28    1
    36    34    30   ar
    37    28    23    1
    38    19    12    1
    39     7     2   ar
    40     8    11    1
@<TRIPOS>MOLECULE
*****
 37 40 0 0 0
SMALL
GASTEIGER

@<TRIPOS>ATOM
      1 C         141.2493  144.1718  161.0138 C.3     1  UNL1        0.0954
      2 C         141.3331  144.6211  159.5852 C.ar    1  UNL1       -0.0045
      3 C         142.3938  144.0616  158.6840 C.ar    1  UNL1       -0.0027
      4 C         142.4776  144.5110  157.2553 C.ar    1  UNL1       -0.0003
      5 C         141.5008  145.5198  156.7279 C.ar    1  UNL1       -0.0000
      6 C         140.4402  146.0793  157.6290 C.ar    1  UNL1       -0.0003
      7 C         140.3564  145.6299  159.0577 C.ar    1  UNL1       -0.0027
      8 N         140.8523  142.7612  161.3343 N.am    1  UNL1       -0.3022
      9 C         139.4025  142.3771  161.3582 C.2     1  UNL1        0.2222
     10 O         138.3497  143.4036  161.0616 O.2     1  UNL1       -0.2751
     11 H         141.5432  142.0874  161.5290 H       1  UNL1        0.1497
     12 C         139.0055  140.9666  161.6787 C.3     1  UNL1        0.0769
     13 C         139.7651  140.1903  162.7133 C.3     1  UNL1        0.0147
     14 C         139.3680  138.7797  163.0337 C.3     1  UNL1        0.0671
     15 C         138.2115  138.1455  162.3196 C.3     1  UNL1        0.2640
     16 F         137.1962  137.1176  161.9160 F       1  UNL1       -0.2043
     17 F         138.6184  137.0122  163.2140 F       1  UNL1       -0.2043
     18 C         137.4519  138.9217  161.2849 C.3     1  UNL1        0.0671
     19 C         137.8489  140.3323  160.9645 C.3     1  UNL1        0.0147
     20 C         141.5625  145.1329  162.1220 C.3     1  UNL1        0.0401
     21 C         142.4576  144.7118  163.2495 C.3     1  UNL1        0.0595
     22 C         143.9085  145.0924  163.2377 C.3     1  UNL1        0.0174
     23 C         140.7903  142.3063  166.6677 C.3     1  UNL1        0.0905
     24 C         139.9007  143.2434  165.9059 C.3     1  UNL1        0.0400
     25 C         140.4565  144.0452  164.7665 C.3     1  UNL1        0.0740
     26 N         141.9019  143.9099  164.3889 N.3     1  UNL1       -0.2738
     27 C         142.7915  142.9728  165.1508 C.3     1  UNL1        0.0740
     28 C         142.2357  142.1710  166.2901 C.3     1  UNL1        0.0400
     29 C         139.0789  139.5395  166.4113 C.3     1  UNL1        0.0738
     30 C         139.4479  140.2328  167.6892 C.ar    1  UNL1        0.1433
     31 N         139.0951  139.7760  169.0737 N.ar    1  UNL1       -0.1337
     32 N         139.6636  140.7654  170.0473 N.ar    1  UNL1       -0.1337
     33 C         140.3678  141.8337  169.2645 C.ar    1  UNL1        0.1425
     34 N         140.2345  141.5045  167.8071 N.ar    1  UNL1       -0.3039
     35 C         141.0803  143.0224  169.8383 C.3     1  UNL1        0.0588
     36 C         140.3477  144.3180  170.0247 C.3     1  UNL1        0.0080
     37 C         142.5254  142.9156  170.2258 C.3     1  UNL1        0.0080
@<TRIPOS>BOND
     1    29    30    1
     2    30    31   ar
     3    31    32   ar
     4    32    33   ar
     5    33    35    1
     6    35    36    1
     7    35    37    1
     8    33    34   ar
     9    34    23    1
    10    23    24    1
    11    24    25    1
    12    25    26    1
    13    26    21    1
    14    21    22    1
    15    21    20    1
    16     1    20    1
    17     1     8    1
    18     8     9   am
    19     9    10    2
    20     9    12    1
    21    12    13    1
    22    13    14    1
    23    14    15    1
    24    15    16    1
    25    15    17    1
    26    15    18    1
    27    18    19    1
    28     1     2    1
    29     2     3   ar
    30     3     4   ar
    31     4     5   ar
    32     5     6   ar
    33     6     7   ar
    34    26    27    1
    35    27    28    1
    36    34    30   ar
    37    28    23    1
    38    19    12    1
    39     7     2   ar
    40     8    11    1
@<TRIPOS>MOLECULE
*****
 37 40 0 0 0
SMALL
GASTEIGER

@<TRIPOS>ATOM
      1 C         142.6576  142.0163  166.0600 C.3     1  UNL1        0.0954
      2 C         142.7892  141.5278  167.4721 C.ar    1  UNL1       -0.0045
      3 C         143.3880  142.4176  168.5208 C.ar    1  UNL1       -0.0027
      4 C         143.5196  141.9291  169.9329 C.ar    1  UNL1       -0.0003
      5 C         143.0524  140.5507  170.2963 C.ar    1  UNL1       -0.0000
      6 C         142.4537  139.6610  169.2476 C.ar    1  UNL1       -0.0003
      7 C         142.3221  140.1495  167.8355 C.ar    1  UNL1       -0.0027
      8 N         141.4879  141.5880  165.2242 N.am    1  UNL1       -0.3022
      9 C         141.5517  140.3081  164.4446 C.2     1  UNL1        0.2222
     10 O         142.7851  139.4564  164.5009 O.2     1  UNL1       -0.2751
     11 H         140.6783  142.1470  165.1872 H       1  UNL1        0.1497
     12 C         140.3820  139.8799  163.6089 C.3     1  UNL1        0.0769
     13 C         139.6669  140.8810  162.7508 C.3     1  UNL1        0.0147
     14 C         138.4972  140.4528  161.9150 C.3     1  UNL1        0.0671
     15 C         138.0427  139.0235  161.9374 C.3     1  UNL1        0.2640
     16 F         137.2434  137.7935  161.6239 F       1  UNL1       -0.2043
     17 F         137.0500  139.5974  160.9704 F       1  UNL1       -0.2043
     18 C         138.7579  138.0224  162.7954 C.3     1  UNL1        0.0671
     19 C         139.9275  138.4506  163.6312 C.3     1  UNL1        0.0147
     20 C         143.6956  142.9330  165.4837 C.3     1  UNL1        0.0401
     21 C         143.4492  143.6130  164.1696 C.3     1  UNL1        0.0595
     22 C         143.1468  145.0816  164.1302 C.3     1  UNL1        0.0174
     23 C         143.6175  141.2470  160.3455 C.3     1  UNL1        0.0905
     24 C         144.5974  140.9650  161.4456 C.3     1  UNL1        0.0400
     25 C         144.5413  141.7537  162.7203 C.3     1  UNL1        0.0740
     26 N         143.5053  142.8243  162.8948 N.3     1  UNL1       -0.2738
     27 C         142.5254  143.1063  161.7947 C.3     1  UNL1        0.0740
     28 C         142.5816  142.3176  160.5201 C.3     1  UNL1        0.0400
     29 C         145.3477  142.0171  157.6878 C.3     1  UNL1        0.0738
     30 C         144.4689  140.8123  157.8492 C.ar    1  UNL1        0.1433
     31 N         144.2310  139.7499  156.8173 N.ar    1  UNL1       -0.1337
     32 N         143.2888  138.7393  157.4011 N.ar    1  UNL1       -0.1337
     33 C         142.9443  139.1771  158.7938 C.ar    1  UNL1        0.1425
     34 N         143.6736  140.4583  159.0708 N.ar    1  UNL1       -0.3039
     35 C         142.0308  138.4597  159.7430 C.3     1  UNL1        0.0588
     36 C         140.5493  138.4682  159.5089 C.3     1  UNL1        0.0080
     37 C         142.5989  137.7337  160.9263 C.3     1  UNL1        0.0080
@<TRIPOS>BOND
     1    29    30    1
     2    30    31   ar
     3    31    32   ar
     4    32    33   ar
     5    33    35    1
     6    35    36    1
     7    35    37    1
     8    33    34   ar
     9    34    23    1
    10    23    24    1
    11    24    25    1
    12    25    26    1
    13    26    21    1
    14    21    22    1
    15    21    20    1
    16     1    20    1
    17     1     8    1
    18     8     9   am
    19     9    10    2
    20     9    12    1
    21    12    13    1
    22    13    14    1
    23    14    15    1
    24    15    16    1
    25    15    17    1
    26    15    18    1
    27    18    19    1
    28     1     2    1
    29     2     3   ar
    30     3     4   ar
    31     4     5   ar
    32     5     6   ar
    33     6     7   ar
    34    26    27    1
    35    27    28    1
    36    34    30   ar
    37    28    23    1
    38    19    12    1
    39     7     2   ar
    40     8    11    1
@<TRIPOS>MOLECULE
*****
 37 40 0 0 0
SMALL
GASTEIGER

@<TRIPOS>ATOM
      1 C         139.6661  142.9716  159.4207 C.3     1  UNL1        0.0954
      2 C         139.6401  143.8987  158.2419 C.ar    1  UNL1       -0.0045
      3 C         140.2536  145.2635  158.3474 C.ar    1  UNL1       -0.0027
      4 C         140.2276  146.1907  157.1685 C.ar    1  UNL1       -0.0003
      5 C         139.5881  145.7530  155.8841 C.ar    1  UNL1       -0.0000
      6 C         138.9747  144.3883  155.7787 C.ar    1  UNL1       -0.0003
      7 C         139.0007  143.4611  156.9575 C.ar    1  UNL1       -0.0027
      8 N         140.8235  143.0033  160.3745 N.am    1  UNL1       -0.3022
      9 C         140.6995  143.7308  161.6803 C.2     1  UNL1        0.2222
     10 O         139.4181  144.4266  162.0325 O.2     1  UNL1       -0.2751
     11 H         141.6645  142.5467  160.1433 H       1  UNL1        0.1497
     12 C         141.8568  143.7626  162.6340 C.3     1  UNL1        0.0769
     13 C         142.7015  142.5385  162.8293 C.3     1  UNL1        0.0147
     14 C         143.8589  142.5703  163.7830 C.3     1  UNL1        0.0671
     15 C         144.1715  143.8261  164.5414 C.3     1  UNL1        0.2640
     16 F         144.8606  144.7708  165.4810 F       1  UNL1       -0.2043
     17 F         145.2555  142.9302  165.0630 F       1  UNL1       -0.2043
     18 C         143.3268  145.0502  164.3461 C.3     1  UNL1        0.0671
     19 C         142.1695  145.0184  163.3925 C.3     1  UNL1        0.0147
     20 C         138.5349  142.0127  159.6458 C.3     1  UNL1        0.0401
     21 C         138.7960  140.6818  160.2867 C.3     1  UNL1        0.0595
     22 C         138.9526  139.4571  159.4350 C.3     1  UNL1        0.0174
     23 C         139.1096  140.3637  164.7645 C.3     1  UNL1        0.0905
     24 C         137.9088  141.0111  164.1408 C.3     1  UNL1        0.0400
     25 C         137.8043  141.1171  162.6483 C.3     1  UNL1        0.0740
     26 N         138.9006  140.5758  161.7793 N.3     1  UNL1       -0.2738
     27 C         140.1014  139.9284  162.4029 C.3     1  UNL1        0.0740
     28 C         140.2059  139.8224  163.8955 C.3     1  UNL1        0.0400
     29 C         137.6808  138.1004  166.6315 C.3     1  UNL1        0.0738
     30 C         138.5574  139.2174  167.1153 C.ar    1  UNL1        0.1433
     31 N         138.9312  139.4901  168.5421 N.ar    1  UNL1       -0.1337
     32 N         139.8189  140.6990  168.5658 N.ar    1  UNL1       -0.1337
     33 C         139.9938  141.1733  167.1536 C.ar    1  UNL1        0.1425
     34 N         139.2141  140.2577  166.2571 N.ar    1  UNL1       -0.3039
     35 C         140.8058  142.3558  166.7149 C.3     1  UNL1        0.0588
     36 C         142.2618  142.4377  167.0660 C.3     1  UNL1        0.0080
     37 C         140.1617  143.4565  165.9251 C.3     1  UNL1        0.0080
@<TRIPOS>BOND
     1    29    30    1
     2    30    31   ar
     3    31    32   ar
     4    32    33   ar
     5    33    35    1
     6    35    36    1
     7    35    37    1
     8    33    34   ar
     9    34    23    1
    10    23    24    1
    11    24    25    1
    12    25    26    1
    13    26    21    1
    14    21    22    1
    15    21    20    1
    16     1    20    1
    17     1     8    1
    18     8     9   am
    19     9    10    2
    20     9    12    1
    21    12    13    1
    22    13    14    1
    23    14    15    1
    24    15    16    1
    25    15    17    1
    26    15    18    1
    27    18    19    1
    28     1     2    1
    29     2     3   ar
    30     3     4   ar
    31     4     5   ar
    32     5     6   ar
    33     6     7   ar
    34    26    27    1
    35    27    28    1
    36    34    30   ar
    37    28    23    1
    38    19    12    1
    39     7     2   ar
    40     8    11    1
@<TRIPOS>MOLECULE
*****
 37 40 0 0 0
SMALL
GASTEIGER

@<TRIPOS>ATOM
      1 C         143.3822  141.5750  161.3415 C.3     1  UNL1        0.0954
      2 C         143.3641  141.6451  159.8432 C.ar    1  UNL1       -0.0045
      3 C         144.4152  142.4306  159.1164 C.ar    1  UNL1       -0.0027
      4 C         144.3971  142.5008  157.6182 C.ar    1  UNL1       -0.0003
      5 C         143.3279  141.7853  156.8467 C.ar    1  UNL1       -0.0000
      6 C         142.2769  140.9998  157.5736 C.ar    1  UNL1       -0.0003
      7 C         142.2950  140.9297  159.0718 C.ar    1  UNL1       -0.0027
      8 N         142.4276  142.4096  162.1430 N.am    1  UNL1       -0.3022
      9 C         141.1149  141.8330  162.5835 C.2     1  UNL1        0.2222
     10 O         140.7566  140.4218  162.2226 O.2     1  UNL1       -0.2751
     11 H         142.6628  143.3358  162.3798 H       1  UNL1        0.1497
     12 C         140.1604  142.6675  163.3850 C.3     1  UNL1        0.0769
     13 C         138.6951  142.3467  163.3777 C.3     1  UNL1        0.0147
     14 C         137.7406  143.1814  164.1791 C.3     1  UNL1        0.0671
     15 C         138.2513  144.3368  164.9879 C.3     1  UNL1        0.2640
     16 F         138.2535  145.5240  165.9047 F       1  UNL1       -0.2043
     17 F         136.7868  144.4283  165.2990 F       1  UNL1       -0.2043
     18 C         139.7166  144.6576  164.9952 C.3     1  UNL1        0.0671
     19 C         140.6711  143.8230  164.1938 C.3     1  UNL1        0.0147
     20 C         144.3549  140.6703  162.0383 C.3     1  UNL1        0.0401
     21 C         144.7050  140.9112  163.4768 C.3     1  UNL1        0.0595
     22 C         146.0801  141.3837  163.8450 C.3     1  UNL1        0.0174
     23 C         141.6298  140.2160  166.6877 C.3     1  UNL1        0.0905
     24 C         141.9599  139.1221  165.7160 C.3     1  UNL1        0.0400
     25 C         142.9850  139.3538  164.6457 C.3     1  UNL1        0.0740
     26 N         143.6799  140.6795  164.5472 N.3     1  UNL1       -0.2738
     27 C         143.3498  141.7734  165.5189 C.3     1  UNL1        0.0740
     28 C         142.3247  141.5416  166.5892 C.3     1  UNL1        0.0400
     29 C         138.4389  139.7233  166.2134 C.3     1  UNL1        0.0738
     30 C         139.1381  139.7578  167.5400 C.ar    1  UNL1        0.1433
     31 N         138.4933  139.5719  168.8815 N.ar    1  UNL1       -0.1337
     32 N         139.5615  139.6835  169.9287 N.ar    1  UNL1       -0.1337
     33 C         140.8664  139.9384  169.2344 C.ar    1  UNL1        0.1425
     34 N         140.6047  139.9843  167.7581 N.ar    1  UNL1       -0.3039
     35 C         142.1991  140.1161  169.8995 C.3     1  UNL1        0.0588
     36 C         142.7122  141.4943  170.1946 C.3     1  UNL1        0.0080
     37 C         143.0186  138.9156  170.2696 C.3     1  UNL1        0.0080
@<TRIPOS>BOND
     1    29    30    1
     2    30    31   ar
     3    31    32   ar
     4    32    33   ar
     5    33    35    1
     6    35    36    1
     7    35    37    1
     8    33    34   ar
     9    34    23    1
    10    23    24    1
    11    24    25    1
    12    25    26    1
    13    26    21    1
    14    21    22    1
    15    21    20    1
    16     1    20    1
    17     1     8    1
    18     8     9   am
    19     9    10    2
    20     9    12    1
    21    12    13    1
    22    13    14    1
    23    14    15    1
    24    15    16    1
    25    15    17    1
    26    15    18    1
    27    18    19    1
    28     1     2    1
    29     2     3   ar
    30     3     4   ar
    31     4     5   ar
    32     5     6   ar
    33     6     7   ar
    34    26    27    1
    35    27    28    1
    36    34    30   ar
    37    28    23    1
    38    19    12    1
    39     7     2   ar
    40     8    11    1
@<TRIPOS>MOLECULE
*****
 37 40 0 0 0
SMALL
GASTEIGER

@<TRIPOS>ATOM
      1 C         141.9644  139.9467  166.1455 C.3     1  UNL1        0.0954
      2 C         141.4884  139.9406  167.5680 C.ar    1  UNL1       -0.0045
      3 C         140.0714  140.3160  167.8863 C.ar    1  UNL1       -0.0027
      4 C         139.5955  140.3100  169.3088 C.ar    1  UNL1       -0.0003
      5 C         140.5366  139.9286  170.4129 C.ar    1  UNL1       -0.0000
      6 C         141.9535  139.5533  170.0946 C.ar    1  UNL1       -0.0003
      7 C         142.4294  139.5593  168.6721 C.ar    1  UNL1       -0.0027
      8 N         141.3999  140.9365  165.1700 N.am    1  UNL1       -0.3022
      9 C         142.0027  142.3054  165.0569 C.2     1  UNL1        0.2222
     10 O         143.1700  142.6844  165.9193 O.2     1  UNL1       -0.2751
     11 H         140.6338  140.6878  164.6039 H       1  UNL1        0.1497
     12 C         141.4382  143.2952  164.0814 C.3     1  UNL1        0.0769
     13 C         140.1766  144.0367  164.4106 C.3     1  UNL1        0.0147
     14 C         139.6121  145.0265  163.4350 C.3     1  UNL1        0.0671
     15 C         140.3093  145.2748  162.1303 C.3     1  UNL1        0.2640
     16 F         140.6038  145.8499  160.7766 F       1  UNL1       -0.2043
     17 F         139.1499  146.2160  161.9894 F       1  UNL1       -0.2043
     18 C         141.5709  144.5332  161.8011 C.3     1  UNL1        0.0671
     19 C         142.1354  143.5435  162.7766 C.3     1  UNL1        0.0147
     20 C         143.0047  138.9629  165.6985 C.3     1  UNL1        0.0401
     21 C         143.7170  139.1652  164.3940 C.3     1  UNL1        0.0595
     22 C         145.1941  139.4257  164.3785 C.3     1  UNL1        0.0174
     23 C         141.4223  138.9909  160.5270 C.3     1  UNL1        0.0905
     24 C         142.4874  140.0291  160.7209 C.3     1  UNL1        0.0400
     25 C         143.2523  140.0872  162.0099 C.3     1  UNL1        0.0740
     26 N         142.9520  139.1071  163.1050 N.3     1  UNL1       -0.2738
     27 C         141.8869  138.0689  162.9111 C.3     1  UNL1        0.0740
     28 C         141.1221  138.0108  161.6221 C.3     1  UNL1        0.0400
     29 C         142.4140  137.5515  157.7711 C.3     1  UNL1        0.0738
     30 C         141.1132  138.2711  157.9713 C.ar    1  UNL1        0.1433
     31 N         140.0399  138.4555  156.9398 N.ar    1  UNL1       -0.1337
     32 N         138.9207  139.2311  157.5690 N.ar    1  UNL1       -0.1337
     33 C         139.3023  139.5260  158.9893 C.ar    1  UNL1        0.1425
     34 N         140.6574  138.9327  159.2379 N.ar    1  UNL1       -0.3039
     35 C         138.4742  140.2816  159.9860 C.3     1  UNL1        0.0588
     36 C         138.6109  141.7710  160.0992 C.3     1  UNL1        0.0080
     37 C         137.5095  139.5477  160.8695 C.3     1  UNL1        0.0080
@<TRIPOS>BOND
     1    29    30    1
     2    30    31   ar
     3    31    32   ar
     4    32    33   ar
     5    33    35    1
     6    35    36    1
     7    35    37    1
     8    33    34   ar
     9    34    23    1
    10    23    24    1
    11    24    25    1
    12    25    26    1
    13    26    21    1
    14    21    22    1
    15    21    20    1
    16     1    20    1
    17     1     8    1
    18     8     9   am
    19     9    10    2
    20     9    12    1
    21    12    13    1
    22    13    14    1
    23    14    15    1
    24    15    16    1
    25    15    17    1
    26    15    18    1
    27    18    19    1
    28     1     2    1
    29     2     3   ar
    30     3     4   ar
    31     4     5   ar
    32     5     6   ar
    33     6     7   ar
    34    26    27    1
    35    27    28    1
    36    34    30   ar
    37    28    23    1
    38    19    12    1
    39     7     2   ar
    40     8    11    1
@<TRIPOS>MOLECULE
*****
 37 40 0 0 0
SMALL
GASTEIGER

@<TRIPOS>ATOM
      1 C         143.5044  142.3229  161.6760 C.3     1  UNL1        0.0954
      2 C         143.0543  140.9119  161.9136 C.ar    1  UNL1       -0.0045
      3 C         141.6072  140.6213  162.1811 C.ar    1  UNL1       -0.0027
      4 C         141.1570  139.2103  162.4186 C.ar    1  UNL1       -0.0003
      5 C         142.1540  138.0899  162.3886 C.ar    1  UNL1       -0.0000
      6 C         143.6010  138.3805  162.1211 C.ar    1  UNL1       -0.0003
      7 C         144.0512  139.7915  161.8836 C.ar    1  UNL1       -0.0027
      8 N         143.1935  143.0003  160.3742 N.am    1  UNL1       -0.3022
      9 C         141.9708  143.8600  160.2494 C.2     1  UNL1        0.2222
     10 O         141.0588  144.0424  161.4263 O.2     1  UNL1       -0.2751
     11 H         143.7921  142.8805  159.6018 H       1  UNL1        0.1497
     12 C         141.6599  144.5373  158.9476 C.3     1  UNL1        0.0769
     13 C         142.5288  144.2940  157.7494 C.3     1  UNL1        0.0147
     14 C         142.2179  144.9713  156.4475 C.3     1  UNL1        0.0671
     15 C         141.0382  145.8919  156.3440 C.3     1  UNL1        0.2640
     16 F         140.0397  146.8426  155.7531 F       1  UNL1       -0.2043
     17 F         141.5603  145.9788  154.9406 F       1  UNL1       -0.2043
     18 C         140.1693  146.1351  157.5423 C.3     1  UNL1        0.0671
     19 C         140.4801  145.4578  158.8441 C.3     1  UNL1        0.0147
     20 C         144.2654  143.0566  162.7402 C.3     1  UNL1        0.0401
     21 C         143.5282  143.7385  163.8545 C.3     1  UNL1        0.0595
     22 C         143.7137  145.2086  164.0871 C.3     1  UNL1        0.0174
     23 C         140.7600  141.3736  166.4991 C.3     1  UNL1        0.0905
     24 C         140.2592  142.5999  165.7954 C.3     1  UNL1        0.0400
     25 C         141.1819  143.3882  164.9139 C.3     1  UNL1        0.0740
     26 N         142.6055  142.9501  164.7360 N.3     1  UNL1       -0.2738
     27 C         143.1063  141.7238  165.4397 C.3     1  UNL1        0.0740
     28 C         142.1835  140.9355  166.3212 C.3     1  UNL1        0.0400
     29 C         140.5046  141.6476  169.7409 C.3     1  UNL1        0.0738
     30 C         139.7199  140.7112  168.8707 C.ar    1  UNL1        0.1433
     31 N         138.6800  139.7363  169.3379 N.ar    1  UNL1       -0.1337
     32 N         138.1546  139.0078  168.1365 N.ar    1  UNL1       -0.1337
     33 C         138.8698  139.5325  166.9269 C.ar    1  UNL1        0.1425
     34 N         139.8372  140.5852  167.3807 N.ar    1  UNL1       -0.3039
     35 C         138.6553  139.0832  165.5119 C.3     1  UNL1        0.0588
     36 C         138.0985  140.0382  164.4980 C.3     1  UNL1        0.0080
     37 C         138.9977  137.6790  165.1108 C.3     1  UNL1        0.0080
@<TRIPOS>BOND
     1    29    30    1
     2    30    31   ar
     3    31    32   ar
     4    32    33   ar
     5    33    35    1
     6    35    36    1
     7    35    37    1
     8    33    34   ar
     9    34    23    1
    10    23    24    1
    11    24    25    1
    12    25    26    1
    13    26    21    1
    14    21    22    1
    15    21    20    1
    16     1    20    1
    17     1     8    1
    18     8     9   am
    19     9    10    2
    20     9    12    1
    21    12    13    1
    22    13    14    1
    23    14    15    1
    24    15    16    1
    25    15    17    1
    26    15    18    1
    27    18    19    1
    28     1     2    1
    29     2     3   ar
    30     3     4   ar
    31     4     5   ar
    32     5     6   ar
    33     6     7   ar
    34    26    27    1
    35    27    28    1
    36    34    30   ar
    37    28    23    1
    38    19    12    1
    39     7     2   ar
    40     8    11    1
@<TRIPOS>MOLECULE
*****
 37 40 0 0 0
SMALL
GASTEIGER

@<TRIPOS>ATOM
      1 C         140.0796  144.5456  161.4060 C.3     1  UNL1        0.0954
      2 C         139.4992  143.2256  161.8192 C.ar    1  UNL1       -0.0045
      3 C         138.0842  143.1495  162.3113 C.ar    1  UNL1       -0.0027
      4 C         137.5039  141.8295  162.7246 C.ar    1  UNL1       -0.0003
      5 C         138.3385  140.5856  162.6457 C.ar    1  UNL1       -0.0000
      6 C         139.7534  140.6617  162.1536 C.ar    1  UNL1       -0.0003
      7 C         140.3338  141.9817  161.7403 C.ar    1  UNL1       -0.0027
      8 N         139.9766  144.9964  159.9790 N.am    1  UNL1       -0.3022
      9 C         141.1719  144.9096  159.0769 C.2     1  UNL1        0.2222
     10 O         142.4701  144.3720  159.6018 O.2     1  UNL1       -0.2751
     11 H         139.1245  145.3493  159.6345 H       1  UNL1        0.1497
     12 C         141.0689  145.3604  157.6500 C.3     1  UNL1        0.0769
     13 C         142.0445  144.8517  156.6305 C.3     1  UNL1        0.0147
     14 C         141.9415  145.3026  155.2035 C.3     1  UNL1        0.0671
     15 C         140.8628  146.2620  154.7961 C.3     1  UNL1        0.2640
     16 F         140.0215  147.1522  153.9302 F       1  UNL1       -0.2043
     17 F         141.5463  146.0625  153.4759 F       1  UNL1       -0.2043
     18 C         139.8872  146.7707  155.8156 C.3     1  UNL1        0.0671
     19 C         139.9902  146.3199  157.2425 C.3     1  UNL1        0.0147
     20 C         140.7628  145.4148  162.4196 C.3     1  UNL1        0.0401
     21 C         141.7994  144.8297  163.3325 C.3     1  UNL1        0.0595
     22 C         143.2563  145.0483  163.0506 C.3     1  UNL1        0.0174
     23 C         140.5379  142.4188  166.9166 C.3     1  UNL1        0.0905
     24 C         139.5797  143.3875  166.2894 C.3     1  UNL1        0.0400
     25 C         140.0002  144.1911  165.0947 C.3     1  UNL1        0.0740
     26 N         141.3789  144.0260  164.5272 N.3     1  UNL1       -0.2738
     27 C         142.3371  143.0573  165.1544 C.3     1  UNL1        0.0740
     28 C         141.9166  142.2537  166.3491 C.3     1  UNL1        0.0400
     29 C         140.7238  143.3724  170.0320 C.3     1  UNL1        0.0738
     30 C         140.2029  142.0534  169.5433 C.ar    1  UNL1        0.1433
     31 N         139.6759  140.9412  170.4007 N.ar    1  UNL1       -0.1337
     32 N         139.2648  139.8154  169.4987 N.ar    1  UNL1       -0.1337
     33 C         139.5377  140.2319  168.0838 C.ar    1  UNL1        0.1425
     34 N         140.1174  141.6151  168.1113 N.ar    1  UNL1       -0.3039
     35 C         139.2766  139.4096  166.8568 C.3     1  UNL1        0.0588
     36 C         137.9014  138.8721  166.5926 C.3     1  UNL1        0.0080
     37 C         140.3908  139.1246  165.8938 C.3     1  UNL1        0.0080
@<TRIPOS>BOND
     1    29    30    1
     2    30    31   ar
     3    31    32   ar
     4    32    33   ar
     5    33    35    1
     6    35    36    1
     7    35    37    1
     8    33    34   ar
     9    34    23    1
    10    23    24    1
    11    24    25    1
    12    25    26    1
    13    26    21    1
    14    21    22    1
    15    21    20    1
    16     1    20    1
    17     1     8    1
    18     8     9   am
    19     9    10    2
    20     9    12    1
    21    12    13    1
    22    13    14    1
    23    14    15    1
    24    15    16    1
    25    15    17    1
    26    15    18    1
    27    18    19    1
    28     1     2    1
    29     2     3   ar
    30     3     4   ar
    31     4     5   ar
    32     5     6   ar
    33     6     7   ar
    34    26    27    1
    35    27    28    1
    36    34    30   ar
    37    28    23    1
    38    19    12    1
    39     7     2   ar
    40     8    11    1
