@<TRIPOS>MOLECULE
*****
 36 40 0 0 0
SMALL
GASTEIGER

@<TRIPOS>ATOM
      1 O         140.7942  143.4696  159.8195 O.2     1  UNL1       -0.2734
      2 C         139.8559  142.6381  160.6430 C.2     1  UNL1        0.2397
      3 N         138.3577  142.6966  160.6011 N.am    1  UNL1       -0.2862
      4 C         137.8270  141.6967  161.5853 C.3     1  UNL1        0.1875
      5 N         138.9974  141.0202  162.2355 N.pl3   1  UNL1       -0.2859
      6 C         140.2513  141.6020  161.6532 C.3     1  UNL1        0.1304
      7 C         140.4932  140.5429  162.6874 C.3     1  UNL1        0.0444
      8 C         141.8962  140.1565  163.0513 C.3     1  UNL1        0.0742
      9 N         143.0572  140.8293  162.3809 N.3     1  UNL1       -0.2725
     10 C         142.8153  141.8884  161.3466 C.3     1  UNL1        0.0742
     11 C         141.4124  142.2747  160.9828 C.3     1  UNL1        0.0444
     12 H         137.8174  143.2875  160.0282 H       1  UNL1        0.1510
     13 C         138.9262  139.9498  163.2840 C.ar    1  UNL1        0.0493
     14 C         139.0280  138.5061  162.8900 C.ar    1  UNL1        0.0146
     15 C         138.9569  137.4357  163.9384 C.ar    1  UNL1        0.0013
     16 C         138.7840  137.8091  165.3809 C.ar    1  UNL1        0.0001
     17 C         138.6822  139.2529  165.7749 C.ar    1  UNL1        0.0013
     18 C         138.7533  140.3232  164.7264 C.ar    1  UNL1        0.0146
     19 C         144.4602  140.4428  162.7448 C.3     1  UNL1        0.0721
     20 C         145.0044  140.7837  164.1003 C.3     1  UNL1        0.0180
     21 C         144.7118  142.1222  164.7111 C.3     1  UNL1        0.0102
     22 C         143.4095  142.3556  165.4177 C.3     1  UNL1        0.0446
     23 C         142.3713  143.2462  164.8021 C.ar    1  UNL1       -0.0183
     24 C         142.7800  144.3161  163.8332 C.ar    1  UNL1       -0.0017
     25 C         141.7418  145.2067  163.2176 C.ar    1  UNL1        0.0293
     26 C         140.2950  145.0275  163.5707 C.ar    1  UNL1        0.1401
     27 F         139.2569  145.9181  162.9551 F       1  UNL1       -0.2042
     28 C         139.8864  143.9577  164.5395 C.ar    1  UNL1        0.0293
     29 C         140.9246  143.0670  165.1552 C.ar    1  UNL1       -0.0017
     30 C         143.1453  141.6985  166.7400 C.ar    1  UNL1       -0.0183
     31 C         142.6664  140.2779  166.7891 C.ar    1  UNL1       -0.0017
     32 C         142.4022  139.6207  168.1113 C.ar    1  UNL1        0.0293
     33 C         142.6169  140.3842  169.3845 C.ar    1  UNL1        0.1401
     34 F         142.3527  139.7271  170.7067 F       1  UNL1       -0.2042
     35 C         143.0957  141.8048  169.3354 C.ar    1  UNL1        0.0293
     36 C         143.3600  142.4620  168.0131 C.ar    1  UNL1       -0.0017
@<TRIPOS>BOND
     1     1     2    2
     2     2     3   am
     3     3     4    1
     4     4     5    1
     5     5    13    1
     6    13    14   ar
     7    14    15   ar
     8    15    16   ar
     9    16    17   ar
    10    17    18   ar
    11     5     6    1
    12     6     7    1
    13     7     8    1
    14     8     9    1
    15     9    19    1
    16    19    20    1
    17    20    21    1
    18    21    22    1
    19    22    23    1
    20    23    24   ar
    21    24    25   ar
    22    25    26   ar
    23    26    27    1
    24    26    28   ar
    25    28    29   ar
    26    22    30    1
    27    30    31   ar
    28    31    32   ar
    29    32    33   ar
    30    33    34    1
    31    33    35   ar
    32    35    36   ar
    33     9    10    1
    34    10    11    1
    35     6     2    1
    36    29    23   ar
    37    36    30   ar
    38    18    13   ar
    39    11     6    1
    40     3    12    1
@<TRIPOS>MOLECULE
*****
 36 40 0 0 0
SMALL
GASTEIGER

@<TRIPOS>ATOM
      1 O         140.7726  143.6449  159.8307 O.2     1  UNL1       -0.2734
      2 C         139.8615  142.7467  160.6137 C.2     1  UNL1        0.2397
      3 N         138.3621  142.7579  160.5708 N.am    1  UNL1       -0.2862
      4 C         137.8637  141.6977  161.5077 C.3     1  UNL1        0.1875
      5 N         139.0551  141.0313  162.1295 N.pl3   1  UNL1       -0.2859
      6 C         140.2898  141.6796  161.5770 C.3     1  UNL1        0.1304
      7 C         140.5654  140.5834  162.5630 C.3     1  UNL1        0.0444
      8 C         141.9800  140.2272  162.9124 C.3     1  UNL1        0.0742
      9 N         143.1189  140.9672  162.2758 N.3     1  UNL1       -0.2725
     10 C         142.8432  142.0634  161.2898 C.3     1  UNL1        0.0742
     11 C         141.4287  142.4196  160.9404 C.3     1  UNL1        0.0444
     12 H         137.8033  143.3560  160.0238 H       1  UNL1        0.1510
     13 C         139.0182  139.9129  163.1285 C.ar    1  UNL1        0.0493
     14 C         139.0671  138.4883  162.6615 C.ar    1  UNL1        0.0146
     15 C         139.0302  137.3699  163.6604 C.ar    1  UNL1        0.0013
     16 C         138.9444  137.6762  165.1263 C.ar    1  UNL1        0.0001
     17 C         138.8956  139.1009  165.5933 C.ar    1  UNL1        0.0013
     18 C         138.9325  140.2192  164.5944 C.ar    1  UNL1        0.0146
     19 C         144.5335  140.6110  162.6253 C.3     1  UNL1        0.0721
     20 C         145.0636  140.9040  163.9975 C.3     1  UNL1        0.0180
     21 C         144.7363  142.2066  164.6657 C.3     1  UNL1        0.0102
     22 C         143.4190  142.3825  165.3612 C.3     1  UNL1        0.0446
     23 C         143.1519  141.6687  166.6531 C.ar    1  UNL1       -0.0183
     24 C         143.3333  142.3862  167.9579 C.ar    1  UNL1       -0.0017
     25 C         143.0662  141.6724  169.2498 C.ar    1  UNL1        0.0293
     26 C         142.6175  140.2411  169.2370 C.ar    1  UNL1        0.1401
     27 F         142.3504  139.5274  170.5289 F       1  UNL1       -0.2042
     28 C         142.4360  139.5237  167.9323 C.ar    1  UNL1        0.0293
     29 C         142.7032  140.2375  166.6403 C.ar    1  UNL1       -0.0017
     30 C         142.3689  143.2723  164.7648 C.ar    1  UNL1       -0.0183
     31 C         142.7647  144.3798  163.8339 C.ar    1  UNL1       -0.0017
     32 C         141.7146  145.2696  163.2375 C.ar    1  UNL1        0.0293
     33 C         140.2687  145.0518  163.5721 C.ar    1  UNL1        0.1401
     34 F         139.2187  145.9415  162.9758 F       1  UNL1       -0.2042
     35 C         139.8730  143.9443  164.5031 C.ar    1  UNL1        0.0293
     36 C         140.9231  143.0545  165.0994 C.ar    1  UNL1       -0.0017
@<TRIPOS>BOND
     1     1     2    2
     2     2     3   am
     3     3     4    1
     4     4     5    1
     5     5    13    1
     6    13    14   ar
     7    14    15   ar
     8    15    16   ar
     9    16    17   ar
    10    17    18   ar
    11     5     6    1
    12     6     7    1
    13     7     8    1
    14     8     9    1
    15     9    19    1
    16    19    20    1
    17    20    21    1
    18    21    22    1
    19    22    23    1
    20    23    24   ar
    21    24    25   ar
    22    25    26   ar
    23    26    27    1
    24    26    28   ar
    25    28    29   ar
    26    22    30    1
    27    30    31   ar
    28    31    32   ar
    29    32    33   ar
    30    33    34    1
    31    33    35   ar
    32    35    36   ar
    33     9    10    1
    34    10    11    1
    35     6     2    1
    36    29    23   ar
    37    36    30   ar
    38    18    13   ar
    39    11     6    1
    40     3    12    1
@<TRIPOS>MOLECULE
*****
 36 40 0 0 0
SMALL
GASTEIGER

@<TRIPOS>ATOM
      1 O         145.3412  139.1147  164.7364 O.2     1  UNL1       -0.2734
      2 C         145.0183  140.3297  163.9182 C.2     1  UNL1        0.2397
      3 N         145.9512  141.4662  163.6214 N.am    1  UNL1       -0.2862
      4 C         145.2152  142.4605  162.7729 C.3     1  UNL1        0.1875
      5 N         143.8275  141.9384  162.5453 N.pl3   1  UNL1       -0.2859
      6 C         143.7058  140.6215  163.2532 C.3     1  UNL1        0.1304
      7 C         142.4585  141.0466  162.5366 C.3     1  UNL1        0.0444
      8 C         141.2385  140.1746  162.5730 C.3     1  UNL1        0.0742
      9 N         141.2659  138.8776  163.3260 N.3     1  UNL1       -0.2725
     10 C         142.5132  138.4526  164.0426 C.3     1  UNL1        0.0742
     11 C         143.7331  139.3245  164.0062 C.3     1  UNL1        0.0444
     12 H         146.8829  141.5457  163.9294 H       1  UNL1        0.1510
     13 C         142.7506  142.6145  161.7496 C.ar    1  UNL1        0.0493
     14 C         141.8458  143.6129  162.4087 C.ar    1  UNL1        0.0146
     15 C         140.7689  144.2890  161.6130 C.ar    1  UNL1        0.0013
     16 C         140.5968  143.9667  160.1582 C.ar    1  UNL1        0.0001
     17 C         141.5017  142.9682  159.4990 C.ar    1  UNL1        0.0013
     18 C         142.5785  142.2922  160.2948 C.ar    1  UNL1        0.0146
     19 C         140.0459  138.0056  163.3624 C.3     1  UNL1        0.0721
     20 C         139.5089  137.5216  164.6767 C.3     1  UNL1        0.0180
     21 C         138.6277  138.4128  165.5009 C.3     1  UNL1        0.0102
     22 C         139.1265  139.7550  165.9479 C.3     1  UNL1        0.0446
     23 C         138.7458  140.9888  165.1846 C.ar    1  UNL1       -0.0183
     24 C         137.8083  140.8895  164.0178 C.ar    1  UNL1       -0.0017
     25 C         137.4276  142.1233  163.2545 C.ar    1  UNL1        0.0293
     26 C         137.9844  143.4565  163.6578 C.ar    1  UNL1        0.1401
     27 F         137.6038  144.6903  162.8945 F       1  UNL1       -0.2042
     28 C         138.9219  143.5558  164.8245 C.ar    1  UNL1        0.0293
     29 C         139.3027  142.3219  165.5879 C.ar    1  UNL1       -0.0017
     30 C         140.0059  139.8633  167.1582 C.ar    1  UNL1       -0.0183
     31 C         141.4968  139.7874  167.0112 C.ar    1  UNL1       -0.0017
     32 C         142.3762  139.8957  168.2215 C.ar    1  UNL1        0.0293
     33 C         141.7649  140.0799  169.5788 C.ar    1  UNL1        0.1401
     34 F         142.6443  140.1882  170.7891 F       1  UNL1       -0.2042
     35 C         140.2740  140.1557  169.7258 C.ar    1  UNL1        0.0293
     36 C         139.3946  140.0474  168.5155 C.ar    1  UNL1       -0.0017
@<TRIPOS>BOND
     1     1     2    2
     2     2     3   am
     3     3     4    1
     4     4     5    1
     5     5    13    1
     6    13    14   ar
     7    14    15   ar
     8    15    16   ar
     9    16    17   ar
    10    17    18   ar
    11     5     6    1
    12     6     7    1
    13     7     8    1
    14     8     9    1
    15     9    19    1
    16    19    20    1
    17    20    21    1
    18    21    22    1
    19    22    23    1
    20    23    24   ar
    21    24    25   ar
    22    25    26   ar
    23    26    27    1
    24    26    28   ar
    25    28    29   ar
    26    22    30    1
    27    30    31   ar
    28    31    32   ar
    29    32    33   ar
    30    33    34    1
    31    33    35   ar
    32    35    36   ar
    33     9    10    1
    34    10    11    1
    35     6     2    1
    36    29    23   ar
    37    36    30   ar
    38    18    13   ar
    39    11     6    1
    40     3    12    1
@<TRIPOS>MOLECULE
*****
 36 40 0 0 0
SMALL
GASTEIGER

@<TRIPOS>ATOM
      1 O         138.5761  142.1606  159.9291 O.2     1  UNL1       -0.2734
      2 C         139.8424  142.7392  160.4873 C.2     1  UNL1        0.2397
      3 N         140.3615  144.1250  160.2424 N.am    1  UNL1       -0.2862
      4 C         141.6520  144.2759  160.9921 C.3     1  UNL1        0.1875
      5 N         141.9304  142.9832  161.7004 N.pl3   1  UNL1       -0.2859
      6 C         140.8120  142.0335  161.3884 C.3     1  UNL1        0.1304
      7 C         141.8662  141.4601  162.2883 C.3     1  UNL1        0.0444
      8 C         141.7397  140.0520  162.7893 C.3     1  UNL1        0.0742
      9 N         140.5589  139.2173  162.3906 N.3     1  UNL1       -0.2725
     10 C         139.5046  139.7907  161.4908 C.3     1  UNL1        0.0742
     11 C         139.6312  141.1988  160.9897 C.3     1  UNL1        0.0444
     12 H         139.9309  144.8145  159.6870 H       1  UNL1        0.1510
     13 C         143.1185  142.6915  162.5683 C.ar    1  UNL1        0.0493
     14 C         144.3456  142.0659  161.9744 C.ar    1  UNL1        0.0146
     15 C         145.5337  141.7743  162.8423 C.ar    1  UNL1        0.0013
     16 C         145.4948  142.1082  164.3041 C.ar    1  UNL1        0.0001
     17 C         144.2676  142.7339  164.8981 C.ar    1  UNL1        0.0013
     18 C         143.0795  143.0255  164.0302 C.ar    1  UNL1        0.0146
     19 C         140.4323  137.8091  162.8917 C.3     1  UNL1        0.0721
     20 C         140.1554  137.5516  164.3433 C.3     1  UNL1        0.0180
     21 C         139.1161  138.3588  165.0632 C.3     1  UNL1        0.0102
     22 C         139.4798  139.6834  165.6658 C.3     1  UNL1        0.0446
     23 C         139.0085  140.9543  165.0234 C.ar    1  UNL1       -0.0183
     24 C         139.7775  142.2264  165.2247 C.ar    1  UNL1       -0.0017
     25 C         139.3063  143.4973  164.5823 C.ar    1  UNL1        0.0293
     26 C         138.0659  143.4962  163.7387 C.ar    1  UNL1        0.1401
     27 F         137.5947  144.7671  163.0964 F       1  UNL1       -0.2042
     28 C         137.2969  142.2242  163.5375 C.ar    1  UNL1        0.0293
     29 C         137.7682  140.9532  164.1799 C.ar    1  UNL1       -0.0017
     30 C         140.3148  139.7371  166.9107 C.ar    1  UNL1       -0.0183
     31 C         141.8013  139.5551  166.8252 C.ar    1  UNL1       -0.0017
     32 C         142.6363  139.6088  168.0702 C.ar    1  UNL1        0.0293
     33 C         141.9849  139.8445  169.4006 C.ar    1  UNL1        0.1401
     34 F         142.8199  139.8981  170.6455 F       1  UNL1       -0.2042
     35 C         140.4984  140.0264  169.4861 C.ar    1  UNL1        0.0293
     36 C         139.6634  139.9727  168.2412 C.ar    1  UNL1       -0.0017
@<TRIPOS>BOND
     1     1     2    2
     2     2     3   am
     3     3     4    1
     4     4     5    1
     5     5    13    1
     6    13    14   ar
     7    14    15   ar
     8    15    16   ar
     9    16    17   ar
    10    17    18   ar
    11     5     6    1
    12     6     7    1
    13     7     8    1
    14     8     9    1
    15     9    19    1
    16    19    20    1
    17    20    21    1
    18    21    22    1
    19    22    23    1
    20    23    24   ar
    21    24    25   ar
    22    25    26   ar
    23    26    27    1
    24    26    28   ar
    25    28    29   ar
    26    22    30    1
    27    30    31   ar
    28    31    32   ar
    29    32    33   ar
    30    33    34    1
    31    33    35   ar
    32    35    36   ar
    33     9    10    1
    34    10    11    1
    35     6     2    1
    36    29    23   ar
    37    36    30   ar
    38    18    13   ar
    39    11     6    1
    40     3    12    1
@<TRIPOS>MOLECULE
*****
 36 40 0 0 0
SMALL
GASTEIGER

@<TRIPOS>ATOM
      1 O         143.6116  141.0314  159.9729 O.2     1  UNL1       -0.2734
      2 C         142.8407  142.1481  160.6121 C.2     1  UNL1        0.2397
      3 N         143.0639  143.6145  160.3886 N.am    1  UNL1       -0.2862
      4 C         142.0724  144.3672  161.2255 C.3     1  UNL1        0.1875
      5 N         141.2364  143.3659  161.9663 N.pl3   1  UNL1       -0.2859
      6 C         141.7112  141.9945  161.5872 C.3     1  UNL1        0.1304
      7 C         140.5742  141.9977  162.5655 C.3     1  UNL1        0.0444
      8 C         140.0173  140.7004  163.0724 C.3     1  UNL1        0.0742
      9 N         140.5976  139.4000  162.6011 N.3     1  UNL1       -0.2725
     10 C         141.7347  139.3968  161.6229 C.3     1  UNL1        0.0742
     11 C         142.2915  140.6940  161.1159 C.3     1  UNL1        0.0444
     12 H         143.7421  144.0130  159.7966 H       1  UNL1        0.1510
     13 C         140.1213  143.6809  162.9189 C.ar    1  UNL1        0.0493
     14 C         140.4108  143.8585  164.3800 C.ar    1  UNL1        0.0146
     15 C         139.2957  144.1734  165.3325 C.ar    1  UNL1        0.0013
     16 C         137.8912  144.3108  164.8241 C.ar    1  UNL1        0.0001
     17 C         137.6017  144.1331  163.3630 C.ar    1  UNL1        0.0013
     18 C         138.7168  143.8182  162.4105 C.ar    1  UNL1        0.0146
     19 C         140.0407  138.1027  163.1081 C.3     1  UNL1        0.0721
     20 C         140.2178  137.7222  164.5482 C.3     1  UNL1        0.0180
     21 C         141.5850  137.7366  165.1651 C.3     1  UNL1        0.0102
     22 C         142.1024  138.9864  165.8132 C.3     1  UNL1        0.0446
     23 C         141.6497  139.3578  167.1942 C.ar    1  UNL1       -0.0183
     24 C         142.5791  139.1876  168.3592 C.ar    1  UNL1       -0.0017
     25 C         142.1264  139.5589  169.7402 C.ar    1  UNL1        0.0293
     26 C         140.7443  140.1004  169.9562 C.ar    1  UNL1        0.1401
     27 F         140.2915  140.4717  171.3372 F       1  UNL1       -0.2042
     28 C         139.8149  140.2705  168.7912 C.ar    1  UNL1        0.0293
     29 C         140.2676  139.8992  167.4101 C.ar    1  UNL1       -0.0017
     30 C         143.0724  139.8650  165.0803 C.ar    1  UNL1       -0.0183
     31 C         143.0017  141.3550  165.2379 C.ar    1  UNL1       -0.0017
     32 C         143.9718  142.2336  164.5050 C.ar    1  UNL1        0.0293
     33 C         145.0125  141.6222  163.6146 C.ar    1  UNL1        0.1401
     34 F         145.9826  142.5008  162.8817 F       1  UNL1       -0.2042
     35 C         145.0832  140.1322  163.4570 C.ar    1  UNL1        0.0293
     36 C         144.1132  139.2536  164.1899 C.ar    1  UNL1       -0.0017
@<TRIPOS>BOND
     1     1     2    2
     2     2     3   am
     3     3     4    1
     4     4     5    1
     5     5    13    1
     6    13    14   ar
     7    14    15   ar
     8    15    16   ar
     9    16    17   ar
    10    17    18   ar
    11     5     6    1
    12     6     7    1
    13     7     8    1
    14     8     9    1
    15     9    19    1
    16    19    20    1
    17    20    21    1
    18    21    22    1
    19    22    23    1
    20    23    24   ar
    21    24    25   ar
    22    25    26   ar
    23    26    27    1
    24    26    28   ar
    25    28    29   ar
    26    22    30    1
    27    30    31   ar
    28    31    32   ar
    29    32    33   ar
    30    33    34    1
    31    33    35   ar
    32    35    36   ar
    33     9    10    1
    34    10    11    1
    35     6     2    1
    36    29    23   ar
    37    36    30   ar
    38    18    13   ar
    39    11     6    1
    40     3    12    1
@<TRIPOS>MOLECULE
*****
 36 40 0 0 0
SMALL
GASTEIGER

@<TRIPOS>ATOM
      1 O         138.8989  138.9191  159.0328 O.2     1  UNL1       -0.2734
      2 C         138.8293  140.3073  159.5966 C.2     1  UNL1        0.2397
      3 N         138.5904  141.5653  158.8153 N.am    1  UNL1       -0.2862
      4 C         138.5999  142.7168  159.7766 C.3     1  UNL1        0.1875
      5 N         138.8447  142.1705  161.1520 N.pl3   1  UNL1       -0.2859
      6 C         138.9865  140.6813  161.0408 C.3     1  UNL1        0.1304
      7 C         139.1218  141.2043  162.4401 C.3     1  UNL1        0.0444
      8 C         139.3762  140.2557  163.5739 C.3     1  UNL1        0.0742
      9 N         139.4951  138.7842  163.3083 N.3     1  UNL1       -0.2725
     10 C         139.3598  138.2612  161.9090 C.3     1  UNL1        0.0742
     11 C         139.1054  139.2098  160.7752 C.3     1  UNL1        0.0444
     12 H         138.4517  141.6247  157.8425 H       1  UNL1        0.1510
     13 C         138.9323  142.9725  162.4166 C.ar    1  UNL1        0.0493
     14 C         140.2583  143.4974  162.8814 C.ar    1  UNL1        0.0146
     15 C         140.3459  144.2994  164.1459 C.ar    1  UNL1        0.0013
     16 C         139.1074  144.5765  164.9456 C.ar    1  UNL1        0.0001
     17 C         137.7813  144.0515  164.4808 C.ar    1  UNL1        0.0013
     18 C         137.6938  143.2496  163.2163 C.ar    1  UNL1        0.0146
     19 C         139.7494  137.8356  164.4422 C.3     1  UNL1        0.0721
     20 C         141.1537  137.4328  164.7825 C.3     1  UNL1        0.0180
     21 C         142.2875  138.3831  164.5344 C.3     1  UNL1        0.0102
     22 C         142.3689  139.6700  165.3007 C.3     1  UNL1        0.0446
     23 C         141.8996  139.7261  166.7242 C.ar    1  UNL1       -0.0183
     24 C         142.7951  139.2479  167.8286 C.ar    1  UNL1       -0.0017
     25 C         142.3259  139.3040  169.2521 C.ar    1  UNL1        0.0293
     26 C         140.9611  139.8383  169.5715 C.ar    1  UNL1        0.1401
     27 F         140.4918  139.8944  170.9950 F       1  UNL1       -0.2042
     28 C         140.0656  140.3165  168.4672 C.ar    1  UNL1        0.0293
     29 C         140.5349  140.2604  167.0436 C.ar    1  UNL1       -0.0017
     30 C         142.9196  140.9007  164.6434 C.ar    1  UNL1       -0.0183
     31 C         143.3287  142.0777  165.4785 C.ar    1  UNL1       -0.0017
     32 C         143.8794  143.3084  164.8212 C.ar    1  UNL1        0.0293
     33 C         144.0209  143.3622  163.3289 C.ar    1  UNL1        0.1401
     34 F         144.5716  144.5930  162.6716 F       1  UNL1       -0.2042
     35 C         143.6118  142.1853  162.4939 C.ar    1  UNL1        0.0293
     36 C         143.0612  140.9545  163.1511 C.ar    1  UNL1       -0.0017
@<TRIPOS>BOND
     1     1     2    2
     2     2     3   am
     3     3     4    1
     4     4     5    1
     5     5    13    1
     6    13    14   ar
     7    14    15   ar
     8    15    16   ar
     9    16    17   ar
    10    17    18   ar
    11     5     6    1
    12     6     7    1
    13     7     8    1
    14     8     9    1
    15     9    19    1
    16    19    20    1
    17    20    21    1
    18    21    22    1
    19    22    23    1
    20    23    24   ar
    21    24    25   ar
    22    25    26   ar
    23    26    27    1
    24    26    28   ar
    25    28    29   ar
    26    22    30    1
    27    30    31   ar
    28    31    32   ar
    29    32    33   ar
    30    33    34    1
    31    33    35   ar
    32    35    36   ar
    33     9    10    1
    34    10    11    1
    35     6     2    1
    36    29    23   ar
    37    36    30   ar
    38    18    13   ar
    39    11     6    1
    40     3    12    1
@<TRIPOS>MOLECULE
*****
 36 40 0 0 0
SMALL
GASTEIGER

@<TRIPOS>ATOM
      1 O         141.0094  140.6067  158.7656 O.2     1  UNL1       -0.2734
      2 C         139.9933  140.2437  159.8076 C.2     1  UNL1        0.2397
      3 N         138.5126  140.1336  159.5946 N.am    1  UNL1       -0.2862
      4 C         137.8837  139.7489  160.9010 C.3     1  UNL1        0.1875
      5 N         138.9758  139.6214  161.9214 N.pl3   1  UNL1       -0.2859
      6 C         140.2796  139.9272  161.2456 C.3     1  UNL1        0.1304
      7 C         140.4113  139.5895  162.7012 C.3     1  UNL1        0.0444
      8 C         141.7638  139.5804  163.3496 C.3     1  UNL1        0.0742
      9 N         142.9847  139.9090  162.5424 N.3     1  UNL1       -0.2725
     10 C         142.8531  140.2466  161.0869 C.3     1  UNL1        0.0742
     11 C         141.5005  140.2558  160.4385 C.3     1  UNL1        0.0444
     12 H         138.0370  140.2868  158.7463 H       1  UNL1        0.1510
     13 C         138.7957  139.2527  163.3642 C.ar    1  UNL1        0.0493
     14 C         138.5114  140.3185  164.3807 C.ar    1  UNL1        0.0146
     15 C         138.3312  139.9499  165.8235 C.ar    1  UNL1        0.0013
     16 C         138.4355  138.5155  166.2498 C.ar    1  UNL1        0.0001
     17 C         138.7198  137.4497  165.2332 C.ar    1  UNL1        0.0013
     18 C         138.8999  137.8184  163.7905 C.ar    1  UNL1        0.0146
     19 C         144.3373  139.8999  163.1909 C.3     1  UNL1        0.0721
     20 C         144.5736  140.6896  164.4440 C.3     1  UNL1        0.0180
     21 C         143.9280  142.0325  164.6173 C.3     1  UNL1        0.0102
     22 C         142.6965  142.1691  165.4627 C.3     1  UNL1        0.0446
     23 C         142.6872  141.6382  166.8656 C.ar    1  UNL1       -0.0183
     24 C         143.3322  142.4236  167.9689 C.ar    1  UNL1       -0.0017
     25 C         143.3229  141.8927  169.3718 C.ar    1  UNL1        0.0293
     26 C         142.6687  140.5765  169.6714 C.ar    1  UNL1        0.1401
     27 F         142.6595  140.0457  171.0742 F       1  UNL1       -0.2042
     28 C         142.0238  139.7912  168.5681 C.ar    1  UNL1        0.0293
     29 C         142.0331  140.3221  167.1651 C.ar    1  UNL1       -0.0017
     30 C         141.4743  142.8365  164.9053 C.ar    1  UNL1       -0.0183
     31 C         141.3746  143.1107  163.4340 C.ar    1  UNL1       -0.0017
     32 C         140.1524  143.7782  162.8765 C.ar    1  UNL1        0.0293
     33 C         139.0299  144.1714  163.7904 C.ar    1  UNL1        0.1401
     34 F         137.8077  144.8389  163.2330 F       1  UNL1       -0.2042
     35 C         139.1296  143.8972  165.2617 C.ar    1  UNL1        0.0293
     36 C         140.3518  143.2298  165.8192 C.ar    1  UNL1       -0.0017
@<TRIPOS>BOND
     1     1     2    2
     2     2     3   am
     3     3     4    1
     4     4     5    1
     5     5    13    1
     6    13    14   ar
     7    14    15   ar
     8    15    16   ar
     9    16    17   ar
    10    17    18   ar
    11     5     6    1
    12     6     7    1
    13     7     8    1
    14     8     9    1
    15     9    19    1
    16    19    20    1
    17    20    21    1
    18    21    22    1
    19    22    23    1
    20    23    24   ar
    21    24    25   ar
    22    25    26   ar
    23    26    27    1
    24    26    28   ar
    25    28    29   ar
    26    22    30    1
    27    30    31   ar
    28    31    32   ar
    29    32    33   ar
    30    33    34    1
    31    33    35   ar
    32    35    36   ar
    33     9    10    1
    34    10    11    1
    35     6     2    1
    36    29    23   ar
    37    36    30   ar
    38    18    13   ar
    39    11     6    1
    40     3    12    1
@<TRIPOS>MOLECULE
*****
 36 40 0 0 0
SMALL
GASTEIGER

@<TRIPOS>ATOM
      1 O         138.9125  138.7842  159.1430 O.2     1  UNL1       -0.2734
      2 C         138.8234  140.1797  159.6857 C.2     1  UNL1        0.2397
      3 N         138.5396  141.4189  158.8896 N.am    1  UNL1       -0.2862
      4 C         138.5433  142.5861  159.8317 C.3     1  UNL1        0.1875
      5 N         138.8293  142.0682  161.2102 N.pl3   1  UNL1       -0.2859
      6 C         139.0024  140.5810  161.1200 C.3     1  UNL1        0.1304
      7 C         139.1554  141.1299  162.5075 C.3     1  UNL1        0.0444
      8 C         139.4549  140.2062  163.6507 C.3     1  UNL1        0.0742
      9 N         139.6015  138.7335  163.4063 N.3     1  UNL1       -0.2725
     10 C         139.4486  138.1845  162.0188 C.3     1  UNL1        0.0742
     11 C         139.1490  139.1083  160.8756 C.3     1  UNL1        0.0444
     12 H         138.3792  141.4591  157.9191 H       1  UNL1        0.1510
     13 C         138.9253  142.8928  162.4595 C.ar    1  UNL1        0.0493
     14 C         140.2497  143.4497  162.8906 C.ar    1  UNL1        0.0146
     15 C         140.3458  144.2743  164.1399 C.ar    1  UNL1        0.0013
     16 C         139.1174  144.5421  164.9581 C.ar    1  UNL1        0.0001
     17 C         137.7929  143.9852  164.5270 C.ar    1  UNL1        0.0013
     18 C         137.6970  143.1606  163.2777 C.ar    1  UNL1        0.0146
     19 C         139.9011  137.8097  164.5496 C.3     1  UNL1        0.0721
     20 C         141.3192  137.4257  164.8518 C.3     1  UNL1        0.0180
     21 C         142.4270  138.4126  164.6303 C.3     1  UNL1        0.0102
     22 C         142.4376  139.7097  165.3837 C.3     1  UNL1        0.0446
     23 C         142.9608  140.9533  164.7283 C.ar    1  UNL1       -0.0183
     24 C         143.3302  142.1430  165.5640 C.ar    1  UNL1       -0.0017
     25 C         143.8534  143.3866  164.9086 C.ar    1  UNL1        0.0293
     26 C         144.0071  143.4407  163.4175 C.ar    1  UNL1        0.1401
     27 F         144.5302  144.6844  162.7621 F       1  UNL1       -0.2042
     28 C         143.6377  142.2512  162.5817 C.ar    1  UNL1        0.0293
     29 C         143.1145  141.0074  163.2371 C.ar    1  UNL1       -0.0017
     30 C         141.9251  139.7630  166.7924 C.ar    1  UNL1       -0.0183
     31 C         142.7890  139.2889  167.9232 C.ar    1  UNL1       -0.0017
     32 C         142.2765  139.3423  169.3319 C.ar    1  UNL1        0.0293
     33 C         140.9002  139.8698  169.6098 C.ar    1  UNL1        0.1401
     34 F         140.3877  139.9232  171.0186 F       1  UNL1       -0.2042
     35 C         140.0363  140.3440  168.4790 C.ar    1  UNL1        0.0293
     36 C         140.5488  140.2906  167.0703 C.ar    1  UNL1       -0.0017
@<TRIPOS>BOND
     1     1     2    2
     2     2     3   am
     3     3     4    1
     4     4     5    1
     5     5    13    1
     6    13    14   ar
     7    14    15   ar
     8    15    16   ar
     9    16    17   ar
    10    17    18   ar
    11     5     6    1
    12     6     7    1
    13     7     8    1
    14     8     9    1
    15     9    19    1
    16    19    20    1
    17    20    21    1
    18    21    22    1
    19    22    23    1
    20    23    24   ar
    21    24    25   ar
    22    25    26   ar
    23    26    27    1
    24    26    28   ar
    25    28    29   ar
    26    22    30    1
    27    30    31   ar
    28    31    32   ar
    29    32    33   ar
    30    33    34    1
    31    33    35   ar
    32    35    36   ar
    33     9    10    1
    34    10    11    1
    35     6     2    1
    36    29    23   ar
    37    36    30   ar
    38    18    13   ar
    39    11     6    1
    40     3    12    1
@<TRIPOS>MOLECULE
*****
 36 40 0 0 0
SMALL
GASTEIGER

@<TRIPOS>ATOM
      1 O         138.5714  142.0436  159.8655 O.2     1  UNL1       -0.2734
      2 C         139.8203  142.6551  160.4277 C.2     1  UNL1        0.2397
      3 N         140.3280  144.0385  160.1475 N.am    1  UNL1       -0.2862
      4 C         141.6024  144.2290  160.9155 C.3     1  UNL1        0.1875
      5 N         141.8823  142.9632  161.6703 N.pl3   1  UNL1       -0.2859
      6 C         140.7809  141.9905  161.3688 C.3     1  UNL1        0.1304
      7 C         141.8247  141.4591  162.3059 C.3     1  UNL1        0.0444
      8 C         141.7049  140.0664  162.8499 C.3     1  UNL1        0.0742
      9 N         140.5414  139.2051  162.4569 N.3     1  UNL1       -0.2725
     10 C         139.4977  139.7365  161.5198 C.3     1  UNL1        0.0742
     11 C         139.6175  141.1292  160.9758 C.3     1  UNL1        0.0444
     12 H         139.8999  144.7045  159.5624 H       1  UNL1        0.1510
     13 C         143.0573  142.7140  162.5688 C.ar    1  UNL1        0.0493
     14 C         144.3091  142.1016  162.0139 C.ar    1  UNL1        0.0146
     15 C         145.4841  141.8523  162.9124 C.ar    1  UNL1        0.0013
     16 C         145.4072  142.2155  164.3658 C.ar    1  UNL1        0.0001
     17 C         144.1553  142.8279  164.9206 C.ar    1  UNL1        0.0013
     18 C         142.9804  143.0771  164.0221 C.ar    1  UNL1        0.0146
     19 C         140.4217  137.8123  163.0010 C.3     1  UNL1        0.0721
     20 C         140.2710  137.5943  164.4773 C.3     1  UNL1        0.0180
     21 C         139.2024  138.3223  165.2378 C.3     1  UNL1        0.0102
     22 C         139.4849  139.6765  165.8177 C.3     1  UNL1        0.0446
     23 C         140.2504  139.7975  167.1019 C.ar    1  UNL1       -0.0183
     24 C         141.7481  139.7140  167.0930 C.ar    1  UNL1       -0.0017
     25 C         142.5136  139.8351  168.3773 C.ar    1  UNL1        0.0293
     26 C         141.7816  140.0397  169.6704 C.ar    1  UNL1        0.1401
     27 F         142.5471  140.1608  170.9546 F       1  UNL1       -0.2042
     28 C         140.2839  140.1232  169.6793 C.ar    1  UNL1        0.0293
     29 C         139.5183  140.0021  168.3951 C.ar    1  UNL1       -0.0017
     30 C         139.0017  140.9096  165.1134 C.ar    1  UNL1       -0.0183
     31 C         139.7248  142.2107  165.2982 C.ar    1  UNL1       -0.0017
     32 C         139.2417  143.4438  164.5939 C.ar    1  UNL1        0.0293
     33 C         138.0355  143.3758  163.7048 C.ar    1  UNL1        0.1401
     34 F         137.5524  144.6089  163.0005 F       1  UNL1       -0.2042
     35 C         137.3125  142.0746  163.5200 C.ar    1  UNL1        0.0293
     36 C         137.7956  140.8415  164.2243 C.ar    1  UNL1       -0.0017
@<TRIPOS>BOND
     1     1     2    2
     2     2     3   am
     3     3     4    1
     4     4     5    1
     5     5    13    1
     6    13    14   ar
     7    14    15   ar
     8    15    16   ar
     9    16    17   ar
    10    17    18   ar
    11     5     6    1
    12     6     7    1
    13     7     8    1
    14     8     9    1
    15     9    19    1
    16    19    20    1
    17    20    21    1
    18    21    22    1
    19    22    23    1
    20    23    24   ar
    21    24    25   ar
    22    25    26   ar
    23    26    27    1
    24    26    28   ar
    25    28    29   ar
    26    22    30    1
    27    30    31   ar
    28    31    32   ar
    29    32    33   ar
    30    33    34    1
    31    33    35   ar
    32    35    36   ar
    33     9    10    1
    34    10    11    1
    35     6     2    1
    36    29    23   ar
    37    36    30   ar
    38    18    13   ar
    39    11     6    1
    40     3    12    1
