@<TRIPOS>MOLECULE
*****
 34 38 0 0 0
SMALL
GASTEIGER

@<TRIPOS>ATOM
      1 C         138.9020  140.1726  159.4683 C.ar    1  UNL1        0.1261
      2 N         138.2947  139.4841  160.6545 N.ar    1  UNL1       -0.1632
      3 N         139.1189  139.8251  161.8605 N.ar    1  UNL1       -0.2290
      4 C         140.2356  140.7243  161.4196 C.ar    1  UNL1        0.0822
      5 C         140.1016  140.9391  159.9412 C.ar    1  UNL1        0.0413
      6 C         138.8700  139.3503  163.2615 C.ar    1  UNL1        0.0933
      7 C         139.2320  137.9485  163.6537 C.ar    1  UNL1        0.0200
      8 C         138.9832  137.4737  165.0546 C.ar    1  UNL1        0.0016
      9 C         138.3724  138.4007  166.0634 C.ar    1  UNL1        0.0010
     10 C         138.0104  139.8025  165.6712 C.ar    1  UNL1        0.0129
     11 C         138.2592  140.2773  164.2702 C.ar    1  UNL1        0.0753
     12 CL        137.8973  141.6792  163.8780 Cl      1  UNL1       -0.0807
     13 C         141.2995  141.3066  162.3022 C.ar    1  UNL1        0.0175
     14 C         142.5015  140.4875  162.6684 C.ar    1  UNL1        0.0020
     15 C         143.5654  141.0697  163.5510 C.ar    1  UNL1        0.0067
     16 C         143.4273  142.4712  164.0675 C.ar    1  UNL1        0.0346
     17 BR        144.4913  143.0535  164.9501 Br      1  UNL1       -0.0490
     18 C         142.2253  143.2905  163.7014 C.ar    1  UNL1        0.0067
     19 C         141.1614  142.7081  162.8187 C.ar    1  UNL1        0.0020
     20 C         137.1662  140.5831  156.0210 C.ar    1  UNL1        0.1104
     21 N         138.0799  139.4250  155.7494 N.ar    1  UNL1       -0.1453
     22 N         138.8413  139.1302  157.0076 N.ar    1  UNL1       -0.1396
     23 C         138.3982  140.1062  158.0570 C.ar    1  UNL1        0.1525
     24 S         137.3629  141.0041  157.4472 S.2     1  UNL1       -0.0483
     25 C         135.6511  139.8587  154.7249 C.3     1  UNL1        0.0065
     26 C         136.2216  141.2101  155.0389 C.3     1  UNL1        0.0430
     27 C         136.7920  142.5614  155.3528 C.3     1  UNL1        0.0065
     28 C         135.2770  141.8370  154.0568 C.3     1  UNL1        0.0065
     29 C         141.0079  141.7738  159.0857 C.3     1  UNL1        0.1587
     30 N         140.9782  143.2693  159.1984 N.ar    1  UNL1       -0.2254
     31 C         142.1032  144.2016  158.8586 C.ar    1  UNL1        0.1975
     32 N         141.6387  145.6035  159.1208 N.ar    1  UNL1       -0.2007
     33 C         140.2266  145.5377  159.6225 C.ar    1  UNL1        0.2210
     34 N         139.8184  144.0951  159.6705 N.ar    1  UNL1       -0.1448
@<TRIPOS>BOND
     1    25    26    1
     2    26    27    1
     3    26    28    1
     4    26    20    1
     5    20    21   ar
     6    21    22   ar
     7    22    23   ar
     8    23     1    1
     9     1     2   ar
    10     2     3   ar
    11     3     6    1
    12     6     7   ar
    13     7     8   ar
    14     8     9   ar
    15     9    10   ar
    16    10    11   ar
    17    11    12    1
    18     3     4   ar
    19     4    13    1
    20    13    14   ar
    21    14    15   ar
    22    15    16   ar
    23    16    17    1
    24    16    18   ar
    25    18    19   ar
    26     4     5   ar
    27     5    29    1
    28    29    30    1
    29    30    31   ar
    30    31    32   ar
    31    32    33   ar
    32    33    34   ar
    33    23    24   ar
    34    24    20   ar
    35     5     1   ar
    36    34    30   ar
    37    11     6   ar
    38    19    13   ar
@<TRIPOS>MOLECULE
*****
 34 38 0 0 0
SMALL
GASTEIGER

@<TRIPOS>ATOM
      1 C         140.4059  140.2455  160.5217 C.ar    1  UNL1        0.1261
      2 N         141.7099  139.9289  159.8514 N.ar    1  UNL1       -0.1632
      3 N         141.9640  140.9801  158.8120 N.ar    1  UNL1       -0.2290
      4 C         140.8170  141.9463  158.8398 C.ar    1  UNL1        0.0822
      5 C         139.8540  141.4923  159.8964 C.ar    1  UNL1        0.0413
      6 C         143.1560  141.0524  157.9041 C.ar    1  UNL1        0.0933
      7 C         143.1592  140.2960  156.6089 C.ar    1  UNL1        0.0200
      8 C         144.3510  140.3683  155.7011 C.ar    1  UNL1        0.0016
      9 C         145.5397  141.1971  156.0885 C.ar    1  UNL1        0.0010
     10 C         145.5365  141.9536  157.3837 C.ar    1  UNL1        0.0129
     11 C         144.3446  141.8813  158.2915 C.ar    1  UNL1        0.0753
     12 CL        144.3414  142.6378  159.5869 Cl      1  UNL1       -0.0807
     13 C         140.6604  143.1544  157.9647 C.ar    1  UNL1        0.0175
     14 C         139.7445  143.1072  156.7778 C.ar    1  UNL1        0.0020
     15 C         139.5879  144.3153  155.9026 C.ar    1  UNL1        0.0067
     16 C         140.3474  145.5708  156.2143 C.ar    1  UNL1        0.0346
     17 BR        140.1908  146.7789  155.3392 Br      1  UNL1       -0.0490
     18 C         141.2634  145.6181  157.4013 C.ar    1  UNL1        0.0067
     19 C         141.4198  144.4099  158.2764 C.ar    1  UNL1        0.0020
     20 C         138.8986  138.8041  163.7952 C.ar    1  UNL1        0.1104
     21 N         138.6641  137.6686  162.8436 N.ar    1  UNL1       -0.1453
     22 N         139.2002  138.0703  161.5015 N.ar    1  UNL1       -0.1396
     23 C         139.7660  139.4541  161.6236 C.ar    1  UNL1        0.1525
     24 S         139.5796  139.9076  163.0412 S.2     1  UNL1       -0.0483
     25 C         138.2631  140.3064  165.1514 C.3     1  UNL1        0.0065
     26 C         138.5188  138.8313  165.2460 C.3     1  UNL1        0.0430
     27 C         138.7744  137.3563  165.3406 C.3     1  UNL1        0.0065
     28 C         138.1389  138.8585  166.6968 C.3     1  UNL1        0.0065
     29 C         138.5654  142.1667  160.2634 C.3     1  UNL1        0.1587
     30 N         138.5426  143.2000  161.3505 N.ar    1  UNL1       -0.2254
     31 C         137.7281  143.1383  162.6086 C.ar    1  UNL1        0.1975
     32 N         138.0125  144.3765  163.4061 N.ar    1  UNL1       -0.2007
     33 C         139.0028  145.2034  162.6408 C.ar    1  UNL1        0.2210
     34 N         139.3304  144.4763  161.3704 N.ar    1  UNL1       -0.1448
@<TRIPOS>BOND
     1    25    26    1
     2    26    27    1
     3    26    28    1
     4    26    20    1
     5    20    21   ar
     6    21    22   ar
     7    22    23   ar
     8    23     1    1
     9     1     2   ar
    10     2     3   ar
    11     3     6    1
    12     6     7   ar
    13     7     8   ar
    14     8     9   ar
    15     9    10   ar
    16    10    11   ar
    17    11    12    1
    18     3     4   ar
    19     4    13    1
    20    13    14   ar
    21    14    15   ar
    22    15    16   ar
    23    16    17    1
    24    16    18   ar
    25    18    19   ar
    26     4     5   ar
    27     5    29    1
    28    29    30    1
    29    30    31   ar
    30    31    32   ar
    31    32    33   ar
    32    33    34   ar
    33    23    24   ar
    34    24    20   ar
    35     5     1   ar
    36    34    30   ar
    37    11     6   ar
    38    19    13   ar
@<TRIPOS>MOLECULE
*****
 34 38 0 0 0
SMALL
GASTEIGER

@<TRIPOS>ATOM
      1 C         140.5828  144.6209  158.3284 C.ar    1  UNL1        0.1261
      2 N         139.5882  144.7223  159.4466 N.ar    1  UNL1       -0.1632
      3 N         140.2111  144.1303  160.6760 N.ar    1  UNL1       -0.2290
      4 C         141.5907  143.6631  160.3176 C.ar    1  UNL1        0.0822
      5 C         141.8205  143.9663  158.8667 C.ar    1  UNL1        0.0413
      6 C         139.5675  144.0241  162.0268 C.ar    1  UNL1        0.0933
      7 C         139.9985  144.9363  163.1368 C.ar    1  UNL1        0.0200
      8 C         139.3548  144.8301  164.4874 C.ar    1  UNL1        0.0016
      9 C         138.2802  143.8117  164.7282 C.ar    1  UNL1        0.0010
     10 C         137.8492  142.8995  163.6182 C.ar    1  UNL1        0.0129
     11 C         138.4928  143.0057  162.2675 C.ar    1  UNL1        0.0753
     12 CL        138.0619  142.0934  161.1575 Cl      1  UNL1       -0.0807
     13 C         142.5689  143.0077  161.2470 C.ar    1  UNL1        0.0175
     14 C         142.6674  141.5119  161.2991 C.ar    1  UNL1        0.0020
     15 C         143.6456  140.8565  162.2284 C.ar    1  UNL1        0.0067
     16 C         144.5253  141.6970  163.1058 C.ar    1  UNL1        0.0346
     17 BR        145.5034  141.0417  164.0351 Br      1  UNL1       -0.0490
     18 C         144.4268  143.1930  163.0537 C.ar    1  UNL1        0.0067
     19 C         143.4486  143.8482  162.1243 C.ar    1  UNL1        0.0020
     20 C         140.1509  146.5257  154.9742 C.ar    1  UNL1        0.1104
     21 N         139.9651  145.1060  154.5272 N.ar    1  UNL1       -0.1453
     22 N         140.1043  144.2196  155.7293 N.ar    1  UNL1       -0.1396
     23 C         140.3761  145.0916  156.9192 C.ar    1  UNL1        0.1525
     24 S         140.4048  146.5168  156.4525 S.2     1  UNL1       -0.0483
     25 C         140.9986  147.0697  153.1073 C.3     1  UNL1        0.0065
     26 C         140.0928  147.7409  154.0968 C.3     1  UNL1        0.0430
     27 C         139.1870  148.4121  155.0863 C.3     1  UNL1        0.0065
     28 C         140.0347  148.9561  153.2194 C.3     1  UNL1        0.0065
     29 C         143.0687  143.6674  158.0904 C.3     1  UNL1        0.1587
     30 N         143.4516  142.2456  157.8043 N.ar    1  UNL1       -0.2254
     31 C         144.8499  141.7186  157.6724 C.ar    1  UNL1        0.1975
     32 N         144.7660  140.2485  157.3865 N.ar    1  UNL1       -0.2007
     33 C         143.3160  139.8669  157.3418 C.ar    1  UNL1        0.2210
     34 N         142.5037  141.1012  157.6000 N.ar    1  UNL1       -0.1448
@<TRIPOS>BOND
     1    25    26    1
     2    26    27    1
     3    26    28    1
     4    26    20    1
     5    20    21   ar
     6    21    22   ar
     7    22    23   ar
     8    23     1    1
     9     1     2   ar
    10     2     3   ar
    11     3     6    1
    12     6     7   ar
    13     7     8   ar
    14     8     9   ar
    15     9    10   ar
    16    10    11   ar
    17    11    12    1
    18     3     4   ar
    19     4    13    1
    20    13    14   ar
    21    14    15   ar
    22    15    16   ar
    23    16    17    1
    24    16    18   ar
    25    18    19   ar
    26     4     5   ar
    27     5    29    1
    28    29    30    1
    29    30    31   ar
    30    31    32   ar
    31    32    33   ar
    32    33    34   ar
    33    23    24   ar
    34    24    20   ar
    35     5     1   ar
    36    34    30   ar
    37    11     6   ar
    38    19    13   ar
@<TRIPOS>MOLECULE
*****
 34 38 0 0 0
SMALL
GASTEIGER

@<TRIPOS>ATOM
      1 C         142.5736  138.3488  158.5771 C.ar    1  UNL1        0.1261
      2 N         143.7314  138.7746  159.4304 N.ar    1  UNL1       -0.1632
      3 N         143.1867  139.5220  160.6114 N.ar    1  UNL1       -0.2290
      4 C         141.6922  139.5581  160.4880 C.ar    1  UNL1        0.0822
      5 C         141.3132  138.8330  159.2307 C.ar    1  UNL1        0.0413
      6 C         143.9946  140.1272  161.7210 C.ar    1  UNL1        0.0933
      7 C         144.2763  139.3338  162.9624 C.ar    1  UNL1        0.0200
      8 C         145.0842  139.9390  164.0719 C.ar    1  UNL1        0.0016
      9 C         145.6104  141.3374  163.9400 C.ar    1  UNL1        0.0010
     10 C         145.3287  142.1308  162.6985 C.ar    1  UNL1        0.0129
     11 C         144.5208  141.5256  161.5890 C.ar    1  UNL1        0.0753
     12 CL        144.2391  142.3190  160.3475 Cl      1  UNL1       -0.0807
     13 C         140.7432  140.2056  161.4524 C.ar    1  UNL1        0.0175
     14 C         140.4021  141.6590  161.3075 C.ar    1  UNL1        0.0020
     15 C         139.4531  142.3065  162.2720 C.ar    1  UNL1        0.0067
     16 C         138.8453  141.5006  163.3815 C.ar    1  UNL1        0.0346
     17 BR        137.8964  142.1481  164.3459 Br      1  UNL1       -0.0490
     18 C         139.1865  140.0470  163.5265 C.ar    1  UNL1        0.0067
     19 C         140.1354  139.3996  162.5619 C.ar    1  UNL1        0.0020
     20 C         142.8366  135.7436  155.7120 C.ar    1  UNL1        0.1104
     21 N         142.7530  137.0231  154.9336 N.ar    1  UNL1       -0.1453
     22 N         142.6443  138.1547  155.9121 N.ar    1  UNL1       -0.1396
     23 C         142.6607  137.5746  157.2953 C.ar    1  UNL1        0.1525
     24 S         142.7796  136.0845  157.1716 S.2     1  UNL1       -0.0483
     25 C         142.2008  134.8113  153.9157 C.3     1  UNL1        0.0065
     26 C         142.9563  134.3653  155.1325 C.3     1  UNL1        0.0430
     27 C         143.7117  133.9192  156.3492 C.3     1  UNL1        0.0065
     28 C         143.0759  132.9870  154.5529 C.3     1  UNL1        0.0065
     29 C         139.9188  138.6281  158.7173 C.3     1  UNL1        0.1587
     30 N         139.2156  139.7377  157.9931 N.ar    1  UNL1       -0.2254
     31 C         139.7834  140.5587  156.8734 C.ar    1  UNL1        0.1975
     32 N         138.7399  141.5494  156.4498 N.ar    1  UNL1       -0.2007
     33 C         137.5272  141.3408  157.3077 C.ar    1  UNL1        0.2210
     34 N         137.8213  140.2210  158.2615 N.ar    1  UNL1       -0.1448
@<TRIPOS>BOND
     1    25    26    1
     2    26    27    1
     3    26    28    1
     4    26    20    1
     5    20    21   ar
     6    21    22   ar
     7    22    23   ar
     8    23     1    1
     9     1     2   ar
    10     2     3   ar
    11     3     6    1
    12     6     7   ar
    13     7     8   ar
    14     8     9   ar
    15     9    10   ar
    16    10    11   ar
    17    11    12    1
    18     3     4   ar
    19     4    13    1
    20    13    14   ar
    21    14    15   ar
    22    15    16   ar
    23    16    17    1
    24    16    18   ar
    25    18    19   ar
    26     4     5   ar
    27     5    29    1
    28    29    30    1
    29    30    31   ar
    30    31    32   ar
    31    32    33   ar
    32    33    34   ar
    33    23    24   ar
    34    24    20   ar
    35     5     1   ar
    36    34    30   ar
    37    11     6   ar
    38    19    13   ar
@<TRIPOS>MOLECULE
*****
 34 38 0 0 0
SMALL
GASTEIGER

@<TRIPOS>ATOM
      1 C         140.9858  143.8515  159.3314 C.ar    1  UNL1        0.1261
      2 N         142.1923  144.1079  160.1850 N.ar    1  UNL1       -0.1632
      3 N         141.9995  143.3899  161.4878 N.ar    1  UNL1       -0.2290
      4 C         140.6738  142.6898  161.4394 C.ar    1  UNL1        0.0822
      5 C         140.0472  142.9751  160.1067 C.ar    1  UNL1        0.0413
      6 C         142.9632  143.3747  162.6372 C.ar    1  UNL1        0.0933
      7 C         143.9910  142.2871  162.7398 C.ar    1  UNL1        0.0200
      8 C         144.9547  142.2719  163.8892 C.ar    1  UNL1        0.0016
      9 C         144.8905  143.3444  164.9359 C.ar    1  UNL1        0.0010
     10 C         143.8627  144.4320  164.8333 C.ar    1  UNL1        0.0129
     11 C         142.8991  144.4472  163.6839 C.ar    1  UNL1        0.0753
     12 CL        141.8712  145.5349  163.5812 Cl      1  UNL1       -0.0807
     13 C         140.0790  141.8515  162.5319 C.ar    1  UNL1        0.0175
     14 C         140.2761  140.3646  162.5281 C.ar    1  UNL1        0.0020
     15 C         139.6813  139.5263  163.6206 C.ar    1  UNL1        0.0067
     16 C         138.8895  140.1751  164.7170 C.ar    1  UNL1        0.0346
     17 BR        138.2947  139.3368  165.8095 Br      1  UNL1       -0.0490
     18 C         138.6924  141.6621  164.7209 C.ar    1  UNL1        0.0067
     19 C         139.2872  142.5003  163.6284 C.ar    1  UNL1        0.0020
     20 C         140.2609  145.8699  156.0963 C.ar    1  UNL1        0.1104
     21 N         140.5527  144.5115  155.5311 N.ar    1  UNL1       -0.1453
     22 N         140.8598  143.5900  156.6742 N.ar    1  UNL1       -0.1396
     23 C         140.7577  144.3790  157.9459 C.ar    1  UNL1        0.1525
     24 S         140.3876  145.7880  157.5887 S.2     1  UNL1       -0.0483
     25 C         140.7410  146.6017  154.1640 C.3     1  UNL1        0.0065
     26 C         139.9049  147.0951  155.3075 C.3     1  UNL1        0.0430
     27 C         139.0689  147.5884  156.4510 C.3     1  UNL1        0.0065
     28 C         139.5490  148.3202  154.5187 C.3     1  UNL1        0.0065
     29 C         138.7160  142.4722  159.6326 C.3     1  UNL1        0.1587
     30 N         138.6487  141.4064  158.5792 N.ar    1  UNL1       -0.2254
     31 C         137.5555  141.2357  157.5663 C.ar    1  UNL1        0.1975
     32 N         137.8939  140.0480  156.7149 N.ar    1  UNL1       -0.2007
     33 C         139.1961  139.4848  157.2016 C.ar    1  UNL1        0.2210
     34 N         139.6626  140.3243  158.3538 N.ar    1  UNL1       -0.1448
@<TRIPOS>BOND
     1    25    26    1
     2    26    27    1
     3    26    28    1
     4    26    20    1
     5    20    21   ar
     6    21    22   ar
     7    22    23   ar
     8    23     1    1
     9     1     2   ar
    10     2     3   ar
    11     3     6    1
    12     6     7   ar
    13     7     8   ar
    14     8     9   ar
    15     9    10   ar
    16    10    11   ar
    17    11    12    1
    18     3     4   ar
    19     4    13    1
    20    13    14   ar
    21    14    15   ar
    22    15    16   ar
    23    16    17    1
    24    16    18   ar
    25    18    19   ar
    26     4     5   ar
    27     5    29    1
    28    29    30    1
    29    30    31   ar
    30    31    32   ar
    31    32    33   ar
    32    33    34   ar
    33    23    24   ar
    34    24    20   ar
    35     5     1   ar
    36    34    30   ar
    37    11     6   ar
    38    19    13   ar
@<TRIPOS>MOLECULE
*****
 34 38 0 0 0
SMALL
GASTEIGER

@<TRIPOS>ATOM
      1 C         142.5652  138.0073  158.7769 C.ar    1  UNL1        0.1261
      2 N         143.1650  137.7118  160.1196 N.ar    1  UNL1       -0.1632
      3 N         142.5053  138.6045  161.1286 N.ar    1  UNL1       -0.2290
      4 C         141.4978  139.4517  160.4094 C.ar    1  UNL1        0.0822
      5 C         141.5348  139.0826  158.9560 C.ar    1  UNL1        0.0413
      6 C         142.8012  138.6431  162.5986 C.ar    1  UNL1        0.0933
      7 C         144.0151  139.3673  163.1006 C.ar    1  UNL1        0.0200
      8 C         144.3109  139.4060  164.5706 C.ar    1  UNL1        0.0016
      9 C         143.3928  138.7205  165.5386 C.ar    1  UNL1        0.0010
     10 C         142.1789  137.9963  165.0367 C.ar    1  UNL1        0.0129
     11 C         141.8831  137.9576  163.5667 C.ar    1  UNL1        0.0753
     12 CL        140.6691  137.2334  163.0647 Cl      1  UNL1       -0.0807
     13 C         140.6093  140.4863  161.0339 C.ar    1  UNL1        0.0175
     14 C         141.1072  141.8890  161.2198 C.ar    1  UNL1        0.0020
     15 C         140.2187  142.9236  161.8444 C.ar    1  UNL1        0.0067
     16 C         138.8323  142.5556  162.2831 C.ar    1  UNL1        0.0346
     17 BR        137.9438  143.5903  162.9077 Br      1  UNL1       -0.0490
     18 C         138.3344  141.1528  162.0972 C.ar    1  UNL1        0.0067
     19 C         139.2230  140.1183  161.4727 C.ar    1  UNL1        0.0020
     20 C         143.0906  135.7219  155.6839 C.ar    1  UNL1        0.1104
     21 N         143.8995  136.9243  155.2966 N.ar    1  UNL1       -0.1453
     22 N         143.8011  137.9268  156.4081 N.ar    1  UNL1       -0.1396
     23 C         142.9315  137.3439  157.4824 C.ar    1  UNL1        0.1525
     24 S         142.4924  135.9813  157.0348 S.2     1  UNL1       -0.0483
     25 C         142.2050  135.2764  153.8086 C.3     1  UNL1        0.0065
     26 C         142.9115  134.4786  154.8643 C.3     1  UNL1        0.0430
     27 C         143.6181  133.6808  155.9199 C.3     1  UNL1        0.0065
     28 C         142.7324  133.2353  154.0445 C.3     1  UNL1        0.0065
     29 C         140.6898  139.6834  157.8720 C.3     1  UNL1        0.1587
     30 N         140.1916  138.8254  156.7470 N.ar    1  UNL1       -0.2254
     31 C         140.4861  139.0238  155.2896 C.ar    1  UNL1        0.1975
     32 N         139.7879  137.9394  154.5238 N.ar    1  UNL1       -0.2007
     33 C         139.0619  137.0707  155.5079 C.ar    1  UNL1        0.2210
     34 N         139.3114  137.6183  156.8819 N.ar    1  UNL1       -0.1448
@<TRIPOS>BOND
     1    25    26    1
     2    26    27    1
     3    26    28    1
     4    26    20    1
     5    20    21   ar
     6    21    22   ar
     7    22    23   ar
     8    23     1    1
     9     1     2   ar
    10     2     3   ar
    11     3     6    1
    12     6     7   ar
    13     7     8   ar
    14     8     9   ar
    15     9    10   ar
    16    10    11   ar
    17    11    12    1
    18     3     4   ar
    19     4    13    1
    20    13    14   ar
    21    14    15   ar
    22    15    16   ar
    23    16    17    1
    24    16    18   ar
    25    18    19   ar
    26     4     5   ar
    27     5    29    1
    28    29    30    1
    29    30    31   ar
    30    31    32   ar
    31    32    33   ar
    32    33    34   ar
    33    23    24   ar
    34    24    20   ar
    35     5     1   ar
    36    34    30   ar
    37    11     6   ar
    38    19    13   ar
@<TRIPOS>MOLECULE
*****
 34 38 0 0 0
SMALL
GASTEIGER

@<TRIPOS>ATOM
      1 C         140.6166  140.3753  160.7463 C.ar    1  UNL1        0.1261
      2 N         139.9367  141.4737  159.9838 N.ar    1  UNL1       -0.1632
      3 N         140.9268  142.0454  159.0127 N.ar    1  UNL1       -0.2290
      4 C         142.2185  141.3004  159.1751 C.ar    1  UNL1        0.0822
      5 C         142.0268  140.2682  160.2465 C.ar    1  UNL1        0.0413
      6 C         140.6702  143.1655  158.0485 C.ar    1  UNL1        0.0933
      7 C         140.2348  142.8625  156.6455 C.ar    1  UNL1        0.0200
      8 C         139.9782  143.9826  155.6814 C.ar    1  UNL1        0.0016
      9 C         140.1570  145.4057  156.1204 C.ar    1  UNL1        0.0010
     10 C         140.5924  145.7088  157.5234 C.ar    1  UNL1        0.0129
     11 C         140.8490  144.5887  158.4875 C.ar    1  UNL1        0.0753
     12 CL        141.2844  144.8917  159.8906 Cl      1  UNL1       -0.0807
     13 C         143.4804  141.5446  158.4018 C.ar    1  UNL1        0.0175
     14 C         144.5171  142.4876  158.9365 C.ar    1  UNL1        0.0020
     15 C         145.7790  142.7318  158.1633 C.ar    1  UNL1        0.0067
     16 C         146.0043  142.0330  156.8552 C.ar    1  UNL1        0.0346
     17 BR        147.2662  142.2773  156.0820 Br      1  UNL1       -0.0490
     18 C         144.9675  141.0900  156.3204 C.ar    1  UNL1        0.0067
     19 C         143.7057  140.8458  157.0938 C.ar    1  UNL1        0.0020
     20 C         139.0061  138.8331  163.9232 C.ar    1  UNL1        0.1104
     21 N         139.0722  137.6361  163.0216 N.ar    1  UNL1       -0.1453
     22 N         139.6836  138.0682  161.7217 N.ar    1  UNL1       -0.1396
     23 C         139.9952  139.5321  161.8200 C.ar    1  UNL1        0.1525
     24 S         139.5765  140.0048  163.1806 S.2     1  UNL1       -0.0483
     25 C         138.2477  140.3348  165.2153 C.3     1  UNL1        0.0065
     26 C         138.4646  138.8544  165.3218 C.3     1  UNL1        0.0430
     27 C         138.6815  137.3740  165.4284 C.3     1  UNL1        0.0065
     28 C         137.9230  138.8757  166.7205 C.3     1  UNL1        0.0065
     29 C         143.0633  139.2991  160.7327 C.3     1  UNL1        0.1587
     30 N         143.7902  139.5607  162.0184 N.ar    1  UNL1       -0.2254
     31 C         144.7442  140.6889  162.2781 C.ar    1  UNL1        0.1975
     32 N         145.2344  140.5656  163.6904 N.ar    1  UNL1       -0.2007
     33 C         144.5833  139.3613  164.3035 C.ar    1  UNL1        0.2210
     34 N         143.6909  138.7403  163.2702 N.ar    1  UNL1       -0.1448
@<TRIPOS>BOND
     1    25    26    1
     2    26    27    1
     3    26    28    1
     4    26    20    1
     5    20    21   ar
     6    21    22   ar
     7    22    23   ar
     8    23     1    1
     9     1     2   ar
    10     2     3   ar
    11     3     6    1
    12     6     7   ar
    13     7     8   ar
    14     8     9   ar
    15     9    10   ar
    16    10    11   ar
    17    11    12    1
    18     3     4   ar
    19     4    13    1
    20    13    14   ar
    21    14    15   ar
    22    15    16   ar
    23    16    17    1
    24    16    18   ar
    25    18    19   ar
    26     4     5   ar
    27     5    29    1
    28    29    30    1
    29    30    31   ar
    30    31    32   ar
    31    32    33   ar
    32    33    34   ar
    33    23    24   ar
    34    24    20   ar
    35     5     1   ar
    36    34    30   ar
    37    11     6   ar
    38    19    13   ar
@<TRIPOS>MOLECULE
*****
 34 38 0 0 0
SMALL
GASTEIGER

@<TRIPOS>ATOM
      1 C         140.3868  141.4649  159.5393 C.ar    1  UNL1        0.1261
      2 N         141.5315  142.0268  158.7495 N.ar    1  UNL1       -0.1632
      3 N         142.0625  140.9384  157.8644 N.ar    1  UNL1       -0.2290
      4 C         141.2460  139.7037  158.1073 C.ar    1  UNL1        0.0822
      5 C         140.2103  140.0291  159.1424 C.ar    1  UNL1        0.0413
      6 C         143.2089  141.0627  156.9050 C.ar    1  UNL1        0.0933
      7 C         144.6197  141.0220  157.4127 C.ar    1  UNL1        0.0200
      8 C         145.7659  141.1464  156.4533 C.ar    1  UNL1        0.0016
      9 C         145.5013  141.3113  154.9860 C.ar    1  UNL1        0.0010
     10 C         144.0905  141.3520  154.4782 C.ar    1  UNL1        0.0129
     11 C         142.9443  141.2276  155.4377 C.ar    1  UNL1        0.0753
     12 CL        141.5334  141.2683  154.9300 Cl      1  UNL1       -0.0807
     13 C         141.4324  138.3767  157.4333 C.ar    1  UNL1        0.0175
     14 C         140.4547  137.9209  156.3911 C.ar    1  UNL1        0.0020
     15 C         140.6411  136.5939  155.7171 C.ar    1  UNL1        0.0067
     16 C         141.8052  135.7226  156.0854 C.ar    1  UNL1        0.0346
     17 BR        141.9916  134.3955  155.4115 Br      1  UNL1       -0.0490
     18 C         142.7830  136.1783  157.1277 C.ar    1  UNL1        0.0067
     19 C         142.5965  137.5054  157.8016 C.ar    1  UNL1        0.0020
     20 C         138.8747  143.3463  162.5789 C.ar    1  UNL1        0.1104
     21 N         137.7166  143.3577  161.6256 N.ar    1  UNL1       -0.1453
     22 N         138.1421  142.6543  160.3710 N.ar    1  UNL1       -0.1396
     23 C         139.5631  142.2082  160.5488 C.ar    1  UNL1        0.1525
     24 S         140.0159  142.6359  161.9134 S.2     1  UNL1       -0.0483
     25 C         139.8758  144.9744  163.4994 C.3     1  UNL1        0.0065
     26 C         138.8890  143.9409  163.9559 C.3     1  UNL1        0.0430
     27 C         137.9023  142.9076  164.4124 C.3     1  UNL1        0.0065
     28 C         138.9034  144.5356  165.3329 C.3     1  UNL1        0.0065
     29 C         139.1792  139.0846  159.6853 C.3     1  UNL1        0.1587
     30 N         139.3574  138.4818  161.0473 N.ar    1  UNL1       -0.2254
     31 C         140.6553  138.0296  161.6483 C.ar    1  UNL1        0.1975
     32 N         140.3691  137.4937  163.0198 N.ar    1  UNL1       -0.2007
     33 C         138.8944  137.6146  163.2663 C.ar    1  UNL1        0.2210
     34 N         138.2692  138.2253  162.0472 N.ar    1  UNL1       -0.1448
@<TRIPOS>BOND
     1    25    26    1
     2    26    27    1
     3    26    28    1
     4    26    20    1
     5    20    21   ar
     6    21    22   ar
     7    22    23   ar
     8    23     1    1
     9     1     2   ar
    10     2     3   ar
    11     3     6    1
    12     6     7   ar
    13     7     8   ar
    14     8     9   ar
    15     9    10   ar
    16    10    11   ar
    17    11    12    1
    18     3     4   ar
    19     4    13    1
    20    13    14   ar
    21    14    15   ar
    22    15    16   ar
    23    16    17    1
    24    16    18   ar
    25    18    19   ar
    26     4     5   ar
    27     5    29    1
    28    29    30    1
    29    30    31   ar
    30    31    32   ar
    31    32    33   ar
    32    33    34   ar
    33    23    24   ar
    34    24    20   ar
    35     5     1   ar
    36    34    30   ar
    37    11     6   ar
    38    19    13   ar
@<TRIPOS>MOLECULE
*****
 34 38 0 0 0
SMALL
GASTEIGER

@<TRIPOS>ATOM
      1 C         140.4211  143.4381  162.3987 C.ar    1  UNL1        0.1261
      2 N         141.1232  143.7763  163.6804 N.ar    1  UNL1       -0.1632
      3 N         140.8329  142.6866  164.6694 N.ar    1  UNL1       -0.2290
      4 C         139.9515  141.6749  163.9990 C.ar    1  UNL1        0.0822
      5 C         139.6969  142.1393  162.5956 C.ar    1  UNL1        0.0413
      6 C         141.3359  142.6202  166.0811 C.ar    1  UNL1        0.0933
      7 C         140.4055  142.9043  167.2229 C.ar    1  UNL1        0.0200
      8 C         140.9085  142.8379  168.6344 C.ar    1  UNL1        0.0016
      9 C         142.3418  142.4874  168.9042 C.ar    1  UNL1        0.0010
     10 C         143.2721  142.2033  167.7625 C.ar    1  UNL1        0.0129
     11 C         142.7692  142.2697  166.3509 C.ar    1  UNL1        0.0753
     12 CL        143.6995  141.9856  165.2090 Cl      1  UNL1       -0.0807
     13 C         139.4182  140.4192  164.6225 C.ar    1  UNL1        0.0175
     14 C         138.3699  140.4996  165.6923 C.ar    1  UNL1        0.0020
     15 C         137.8366  139.2439  166.3158 C.ar    1  UNL1        0.0067
     16 C         138.3516  137.9076  165.8694 C.ar    1  UNL1        0.0346
     17 BR        137.8183  136.6519  166.4929 Br      1  UNL1       -0.0490
     18 C         139.3999  137.8271  164.7995 C.ar    1  UNL1        0.0067
     19 C         139.9331  139.0829  164.1761 C.ar    1  UNL1        0.0020
     20 C         140.9721  145.0430  158.9079 C.ar    1  UNL1        0.1104
     21 N         139.9654  145.9823  159.5030 N.ar    1  UNL1       -0.1453
     22 N         139.6365  145.4955  160.8832 N.ar    1  UNL1       -0.1396
     23 C         140.4399  144.2553  161.1409 C.ar    1  UNL1        0.1525
     24 S         141.2653  143.9757  159.9201 S.2     1  UNL1       -0.0483
     25 C         142.6564  144.1885  157.9419 C.3     1  UNL1        0.0065
     26 C         141.5790  145.1520  157.5405 C.3     1  UNL1        0.0430
     27 C         140.5017  146.1154  157.1391 C.3     1  UNL1        0.0065
     28 C         142.1859  145.2609  156.1731 C.3     1  UNL1        0.0065
     29 C         138.8644  141.4296  161.5694 C.3     1  UNL1        0.1587
     30 N         139.4871  140.3867  160.6892 N.ar    1  UNL1       -0.2254
     31 C         140.9467  140.0472  160.6216 C.ar    1  UNL1        0.1975
     32 N         141.1212  138.9509  159.6128 N.ar    1  UNL1       -0.2007
     33 C         139.7695  138.6129  159.0570 C.ar    1  UNL1        0.2210
     34 N         138.7596  139.5003  159.7223 N.ar    1  UNL1       -0.1448
@<TRIPOS>BOND
     1    25    26    1
     2    26    27    1
     3    26    28    1
     4    26    20    1
     5    20    21   ar
     6    21    22   ar
     7    22    23   ar
     8    23     1    1
     9     1     2   ar
    10     2     3   ar
    11     3     6    1
    12     6     7   ar
    13     7     8   ar
    14     8     9   ar
    15     9    10   ar
    16    10    11   ar
    17    11    12    1
    18     3     4   ar
    19     4    13    1
    20    13    14   ar
    21    14    15   ar
    22    15    16   ar
    23    16    17    1
    24    16    18   ar
    25    18    19   ar
    26     4     5   ar
    27     5    29    1
    28    29    30    1
    29    30    31   ar
    30    31    32   ar
    31    32    33   ar
    32    33    34   ar
    33    23    24   ar
    34    24    20   ar
    35     5     1   ar
    36    34    30   ar
    37    11     6   ar
    38    19    13   ar
