@<TRIPOS>MOLECULE
*****
 33 34 0 0 0
SMALL
GASTEIGER

@<TRIPOS>ATOM
      1 C         141.6935  142.7951  164.4006 C.3     1  UNL1        0.0197
      2 C         142.7778  143.8315  164.4026 C.3     1  UNL1        0.0187
      3 C         144.2173  143.4109  164.3716 C.3     1  UNL1        0.0722
      4 N         144.7787  142.7478  163.1489 N.3     1  UNL1       -0.2712
      5 C         144.3672  143.2175  161.7850 C.3     1  UNL1        0.0896
      6 C         145.7518  141.6149  163.2900 C.3     1  UNL1        0.0768
      7 C         145.4245  140.4515  164.1783 C.3     1  UNL1        0.0438
      8 C         141.8737  137.8454  163.2563 C.ar    1  UNL1        0.1724
      9 C         142.1378  138.2815  164.6670 C.ar    1  UNL1        0.0397
     10 C         143.3214  139.1502  164.9743 C.ar    1  UNL1       -0.0009
     11 C         144.2409  139.5828  163.8710 C.ar    1  UNL1       -0.0176
     12 C         143.9768  139.1466  162.4603 C.ar    1  UNL1        0.0358
     13 C         142.7932  138.2779  162.1530 C.ar    1  UNL1        0.1721
     14 C         139.3229  137.5836  162.8386 C.3     1  UNL1        0.2526
     15 O         140.6901  136.9767  162.9490 O.3     1  UNL1       -0.4684
     16 O         142.5292  137.8418  160.7423 O.3     1  UNL1       -0.4684
     17 C         141.5409  138.5907  159.8982 C.3     1  UNL1        0.2526
     18 C         140.2666  143.2020  164.6205 C.3     1  UNL1        0.0981
     19 C         140.2169  142.3582  165.8597 C.ar    1  UNL1       -0.0065
     20 C         139.8921  140.8972  165.7596 C.ar    1  UNL1        0.0000
     21 C         139.8424  140.0533  166.9987 C.ar    1  UNL1        0.0398
     22 C         140.1174  140.6704  168.3379 C.ar    1  UNL1        0.1724
     23 C         140.4422  142.1314  168.4380 C.ar    1  UNL1        0.1721
     24 C         140.4919  142.9752  167.1989 C.ar    1  UNL1        0.0367
     25 O         140.0677  139.8265  169.5770 O.3     1  UNL1       -0.4684
     26 C         141.3409  139.3986  170.2446 C.3     1  UNL1        0.2526
     27 O         140.7172  142.7485  169.7772 O.3     1  UNL1       -0.4684
     28 C         142.1236  143.0913  170.1705 C.3     1  UNL1        0.2526
     29 C         138.8397  143.6090  164.8405 C.3     1  UNL1        0.0169
     30 C         138.5266  144.9222  165.4942 C.3     1  UNL1        0.0014
     31 C         137.7259  142.7027  164.4066 C.3     1  UNL1        0.0014
     32 C         140.3163  144.0459  163.3814 C.1     1  UNL1        0.0752
     33 N         140.3660  144.8898  162.1423 N.1     1  UNL1       -0.1956
@<TRIPOS>BOND
     1    14    15    1
     2    15     8    1
     3     8     9   ar
     4     9    10   ar
     5    10    11   ar
     6    11     7    1
     7     7     6    1
     8     6     4    1
     9     4     5    1
    10     4     3    1
    11     3     2    1
    12     2     1    1
    13     1    18    1
    14    18    32    1
    15    32    33    3
    16    18    19    1
    17    19    20   ar
    18    20    21   ar
    19    21    22   ar
    20    22    25    1
    21    25    26    1
    22    22    23   ar
    23    23    27    1
    24    27    28    1
    25    23    24   ar
    26    18    29    1
    27    29    30    1
    28    29    31    1
    29    11    12   ar
    30    12    13   ar
    31    13    16    1
    32    16    17    1
    33    13     8   ar
    34    24    19   ar
@<TRIPOS>MOLECULE
*****
 33 34 0 0 0
SMALL
GASTEIGER

@<TRIPOS>ATOM
      1 C         141.7972  142.8907  164.2822 C.3     1  UNL1        0.0197
      2 C         142.8979  143.9041  164.3881 C.3     1  UNL1        0.0187
      3 C         144.3296  143.4708  164.2761 C.3     1  UNL1        0.0722
      4 N         144.7828  142.6795  163.0852 N.3     1  UNL1       -0.2712
      5 C         144.2608  143.0144  161.7194 C.3     1  UNL1        0.0896
      6 C         145.7580  141.5532  163.2600 C.3     1  UNL1        0.0768
      7 C         145.4122  140.3922  164.1445 C.3     1  UNL1        0.0438
      8 C         141.7976  137.8702  163.2366 C.ar    1  UNL1        0.1724
      9 C         142.0264  138.3794  164.6288 C.ar    1  UNL1        0.0397
     10 C         143.2312  139.2200  164.9314 C.ar    1  UNL1       -0.0009
     11 C         144.2073  139.5515  163.8419 C.ar    1  UNL1       -0.0176
     12 C         143.9786  139.0423  162.4496 C.ar    1  UNL1        0.0358
     13 C         142.7738  138.2017  162.1470 C.ar    1  UNL1        0.1721
     14 C         139.2206  137.6305  163.0100 C.3     1  UNL1        0.2526
     15 O         140.5928  137.0295  162.9339 O.3     1  UNL1       -0.4684
     16 O         142.5451  137.6925  160.7546 O.3     1  UNL1       -0.4684
     17 C         141.7015  138.4805  159.7970 C.3     1  UNL1        0.2526
     18 C         140.3649  143.3267  164.3749 C.3     1  UNL1        0.0981
     19 C         140.1691  142.4312  165.5622 C.ar    1  UNL1       -0.0065
     20 C         140.5153  142.9219  166.9368 C.ar    1  UNL1        0.0000
     21 C         140.3196  142.0264  168.1241 C.ar    1  UNL1        0.0398
     22 C         139.7776  140.6404  167.9370 C.ar    1  UNL1        0.1724
     23 C         139.4315  140.1497  166.5624 C.ar    1  UNL1        0.1721
     24 C         139.6272  141.0452  165.3751 C.ar    1  UNL1        0.0367
     25 O         139.5819  139.7449  169.1244 O.3     1  UNL1       -0.4684
     26 C         138.5777  140.1059  170.1785 C.3     1  UNL1        0.2526
     27 O         138.8895  138.7636  166.3752 O.3     1  UNL1       -0.4684
     28 C         137.5766  138.3820  166.9921 C.3     1  UNL1        0.2526
     29 C         138.9326  143.7627  164.4675 C.3     1  UNL1        0.0169
     30 C         138.5450  144.8714  165.4004 C.3     1  UNL1        0.0014
     31 C         137.8880  143.0898  163.6272 C.3     1  UNL1        0.0014
     32 C         140.5607  144.2221  163.1875 C.1     1  UNL1        0.0752
     33 N         140.7564  145.1176  162.0001 N.1     1  UNL1       -0.1956
@<TRIPOS>BOND
     1    14    15    1
     2    15     8    1
     3     8     9   ar
     4     9    10   ar
     5    10    11   ar
     6    11     7    1
     7     7     6    1
     8     6     4    1
     9     4     5    1
    10     4     3    1
    11     3     2    1
    12     2     1    1
    13     1    18    1
    14    18    32    1
    15    32    33    3
    16    18    19    1
    17    19    20   ar
    18    20    21   ar
    19    21    22   ar
    20    22    25    1
    21    25    26    1
    22    22    23   ar
    23    23    27    1
    24    27    28    1
    25    23    24   ar
    26    18    29    1
    27    29    30    1
    28    29    31    1
    29    11    12   ar
    30    12    13   ar
    31    13    16    1
    32    16    17    1
    33    13     8   ar
    34    24    19   ar
@<TRIPOS>MOLECULE
*****
 33 34 0 0 0
SMALL
GASTEIGER

@<TRIPOS>ATOM
      1 C         139.3014  140.6189  167.3934 C.3     1  UNL1        0.0197
      2 C         139.5996  139.2540  166.8476 C.3     1  UNL1        0.0187
      3 C         138.6544  138.6118  165.8760 C.3     1  UNL1        0.0722
      4 N         138.8524  138.7999  164.4011 N.3     1  UNL1       -0.2712
      5 C         138.4967  140.1072  163.7573 C.3     1  UNL1        0.0896
      6 C         139.4061  137.6807  163.5699 C.3     1  UNL1        0.0768
      7 C         140.7212  137.0570  163.9324 C.3     1  UNL1        0.0438
      8 C         144.4633  139.5562  163.9675 C.ar    1  UNL1        0.1724
      9 C         143.8666  139.0810  165.2590 C.ar    1  UNL1        0.0397
     10 C         142.6193  138.2479  165.2473 C.ar    1  UNL1       -0.0009
     11 C         141.9686  137.8901  163.9441 C.ar    1  UNL1       -0.0176
     12 C         142.5652  138.3653  162.6525 C.ar    1  UNL1        0.0358
     13 C         143.8125  139.1984  162.6642 C.ar    1  UNL1        0.1721
     14 C         145.6567  141.8264  163.5530 C.3     1  UNL1        0.2526
     15 O         145.7106  140.3893  163.9791 O.3     1  UNL1       -0.4684
     16 O         144.4091  139.6736  161.3726 O.3     1  UNL1       -0.4684
     17 C         143.6695  140.6659  160.5250 C.3     1  UNL1        0.2526
     18 C         140.3002  141.3092  168.2742 C.3     1  UNL1        0.0981
     19 C         140.8481  142.0370  167.0825 C.ar    1  UNL1       -0.0065
     20 C         142.2972  141.8992  166.7206 C.ar    1  UNL1        0.0000
     21 C         142.8451  142.6269  165.5289 C.ar    1  UNL1        0.0398
     22 C         141.9439  143.4926  164.6992 C.ar    1  UNL1        0.1724
     23 C         140.4948  143.6304  165.0611 C.ar    1  UNL1        0.1721
     24 C         139.9469  142.9026  166.2528 C.ar    1  UNL1        0.0367
     25 O         142.4918  144.2204  163.5075 O.3     1  UNL1       -0.4684
     26 C         143.6841  145.1177  163.6596 C.3     1  UNL1        0.2526
     27 O         139.5935  144.4961  164.2314 O.3     1  UNL1       -0.4684
     28 C         138.1046  144.3789  164.3706 C.3     1  UNL1        0.2526
     29 C         141.2991  141.9995  169.1550 C.3     1  UNL1        0.0169
     30 C         141.0668  143.4179  169.5841 C.3     1  UNL1        0.0014
     31 C         142.5303  141.2713  169.6068 C.3     1  UNL1        0.0014
     32 C         139.7523  140.5814  169.4659 C.1     1  UNL1        0.0752
     33 N         139.2044  139.8536  170.6576 N.1     1  UNL1       -0.1956
@<TRIPOS>BOND
     1    14    15    1
     2    15     8    1
     3     8     9   ar
     4     9    10   ar
     5    10    11   ar
     6    11     7    1
     7     7     6    1
     8     6     4    1
     9     4     5    1
    10     4     3    1
    11     3     2    1
    12     2     1    1
    13     1    18    1
    14    18    32    1
    15    32    33    3
    16    18    19    1
    17    19    20   ar
    18    20    21   ar
    19    21    22   ar
    20    22    25    1
    21    25    26    1
    22    22    23   ar
    23    23    27    1
    24    27    28    1
    25    23    24   ar
    26    18    29    1
    27    29    30    1
    28    29    31    1
    29    11    12   ar
    30    12    13   ar
    31    13    16    1
    32    16    17    1
    33    13     8   ar
    34    24    19   ar
@<TRIPOS>MOLECULE
*****
 33 34 0 0 0
SMALL
GASTEIGER

@<TRIPOS>ATOM
      1 C         141.9312  141.7628  163.2351 C.3     1  UNL1        0.0197
      2 C         141.7778  143.1651  162.7254 C.3     1  UNL1        0.0187
      3 C         141.3937  144.2677  163.6671 C.3     1  UNL1        0.0722
      4 N         140.0284  144.8832  163.5843 N.3     1  UNL1       -0.2712
      5 C         139.6222  145.6451  162.3577 C.3     1  UNL1        0.0896
      6 C         139.0691  144.7368  164.7281 C.3     1  UNL1        0.0768
      7 C         137.8542  143.8692  164.5818 C.3     1  UNL1        0.0438
      8 C         138.2370  139.7365  162.8429 C.ar    1  UNL1        0.1724
      9 C         138.0998  140.9225  161.9349 C.ar    1  UNL1        0.0397
     10 C         137.9723  142.3001  162.5145 C.ar    1  UNL1       -0.0009
     11 C         137.9818  142.4917  164.0022 C.ar    1  UNL1       -0.0176
     12 C         138.1190  141.3056  164.9102 C.ar    1  UNL1        0.0358
     13 C         138.2465  139.9281  164.3305 C.ar    1  UNL1        0.1721
     14 C         138.9904  138.1682  160.9134 C.3     1  UNL1        0.2526
     15 O         138.3645  138.3589  162.2632 O.3     1  UNL1       -0.4684
     16 O         138.3837  138.7420  165.2386 O.3     1  UNL1       -0.4684
     17 C         137.8937  138.8206  166.6541 C.3     1  UNL1        0.2526
     18 C         143.2831  141.2564  163.6423 C.3     1  UNL1        0.0981
     19 C         142.7887  141.0647  165.0454 C.ar    1  UNL1       -0.0065
     20 C         141.8706  139.9231  165.3676 C.ar    1  UNL1        0.0000
     21 C         141.3762  139.7313  166.7708 C.ar    1  UNL1        0.0398
     22 C         141.8000  140.6811  167.8517 C.ar    1  UNL1        0.1724
     23 C         142.7181  141.8226  167.5294 C.ar    1  UNL1        0.1721
     24 C         143.2125  142.0144  166.1263 C.ar    1  UNL1        0.0367
     25 O         141.3056  140.4893  169.2548 O.3     1  UNL1       -0.4684
     26 C         139.9173  140.9190  169.6262 C.3     1  UNL1        0.2526
     27 O         143.1419  142.7724  168.6104 O.3     1  UNL1       -0.4684
     28 C         143.9629  142.2776  169.7641 C.3     1  UNL1        0.2526
     29 C         144.6351  140.7501  164.0494 C.3     1  UNL1        0.0169
     30 C         144.8002  139.3274  164.4951 C.3     1  UNL1        0.0014
     31 C         145.8221  141.6665  164.0109 C.3     1  UNL1        0.0014
     32 C         143.7775  141.4482  162.2391 C.1     1  UNL1        0.0752
     33 N         144.2719  141.6400  160.8360 N.1     1  UNL1       -0.1956
@<TRIPOS>BOND
     1    14    15    1
     2    15     8    1
     3     8     9   ar
     4     9    10   ar
     5    10    11   ar
     6    11     7    1
     7     7     6    1
     8     6     4    1
     9     4     5    1
    10     4     3    1
    11     3     2    1
    12     2     1    1
    13     1    18    1
    14    18    32    1
    15    32    33    3
    16    18    19    1
    17    19    20   ar
    18    20    21   ar
    19    21    22   ar
    20    22    25    1
    21    25    26    1
    22    22    23   ar
    23    23    27    1
    24    27    28    1
    25    23    24   ar
    26    18    29    1
    27    29    30    1
    28    29    31    1
    29    11    12   ar
    30    12    13   ar
    31    13    16    1
    32    16    17    1
    33    13     8   ar
    34    24    19   ar
@<TRIPOS>MOLECULE
*****
 33 34 0 0 0
SMALL
GASTEIGER

@<TRIPOS>ATOM
      1 C         139.5078  140.1021  166.9836 C.3     1  UNL1        0.0197
      2 C         138.8760  138.7574  166.7777 C.3     1  UNL1        0.0187
      3 C         138.4132  138.3474  165.4110 C.3     1  UNL1        0.0722
      4 N         139.4173  138.0018  164.3516 N.3     1  UNL1       -0.2712
      5 C         140.6284  137.1894  164.7025 C.3     1  UNL1        0.0896
      6 C         139.2102  138.4685  162.9412 C.3     1  UNL1        0.0768
      7 C         137.9916  139.2683  162.5871 C.3     1  UNL1        0.0438
      8 C         138.2389  143.7546  162.3381 C.ar    1  UNL1        0.1724
      9 C         137.8722  143.0945  163.6341 C.ar    1  UNL1        0.0397
     10 C         137.7898  141.5991  163.7171 C.ar    1  UNL1       -0.0009
     11 C         138.0740  140.7638  162.5041 C.ar    1  UNL1       -0.0176
     12 C         138.4407  141.4239  161.2081 C.ar    1  UNL1        0.0358
     13 C         138.5231  142.9193  161.1251 C.ar    1  UNL1        0.1721
     14 C         139.6471  145.9173  162.0386 C.3     1  UNL1        0.2526
     15 O         138.3213  145.2501  162.2551 O.3     1  UNL1       -0.4684
     16 O         138.8898  143.5795  159.8289 O.3     1  UNL1       -0.4684
     17 C         140.2254  143.3101  159.2016 C.3     1  UNL1        0.2526
     18 C         140.5980  140.2709  167.9999 C.3     1  UNL1        0.0981
     19 C         141.6138  140.3421  166.8985 C.ar    1  UNL1       -0.0065
     20 C         142.6265  139.2470  166.7403 C.ar    1  UNL1        0.0000
     21 C         143.6423  139.3182  165.6388 C.ar    1  UNL1        0.0398
     22 C         143.6453  140.4844  164.6956 C.ar    1  UNL1        0.1724
     23 C         142.6325  141.5795  164.8537 C.ar    1  UNL1        0.1721
     24 C         141.6167  141.5083  165.9552 C.ar    1  UNL1        0.0367
     25 O         144.6610  140.5556  163.5941 O.3     1  UNL1       -0.4684
     26 C         145.8088  141.5162  163.6933 C.3     1  UNL1        0.2526
     27 O         142.6354  142.7459  163.9105 O.3     1  UNL1       -0.4684
     28 C         141.8196  143.9652  164.2229 C.3     1  UNL1        0.2526
     29 C         141.6883  140.4396  169.0162 C.3     1  UNL1        0.0169
     30 C         142.3618  141.7699  169.1797 C.3     1  UNL1        0.0014
     31 C         142.1049  139.2781  169.8690 C.3     1  UNL1        0.0014
     32 C         139.5823  140.1997  169.1013 C.1     1  UNL1        0.0752
     33 N         138.5665  140.1285  170.2028 N.1     1  UNL1       -0.1956
@<TRIPOS>BOND
     1    14    15    1
     2    15     8    1
     3     8     9   ar
     4     9    10   ar
     5    10    11   ar
     6    11     7    1
     7     7     6    1
     8     6     4    1
     9     4     5    1
    10     4     3    1
    11     3     2    1
    12     2     1    1
    13     1    18    1
    14    18    32    1
    15    32    33    3
    16    18    19    1
    17    19    20   ar
    18    20    21   ar
    19    21    22   ar
    20    22    25    1
    21    25    26    1
    22    22    23   ar
    23    23    27    1
    24    27    28    1
    25    23    24   ar
    26    18    29    1
    27    29    30    1
    28    29    31    1
    29    11    12   ar
    30    12    13   ar
    31    13    16    1
    32    16    17    1
    33    13     8   ar
    34    24    19   ar
@<TRIPOS>MOLECULE
*****
 33 34 0 0 0
SMALL
GASTEIGER

@<TRIPOS>ATOM
      1 C         139.6193  141.0675  164.2052 C.3     1  UNL1        0.0197
      2 C         138.5002  140.2144  164.7244 C.3     1  UNL1        0.0187
      3 C         138.7137  138.7450  164.9373 C.3     1  UNL1        0.0722
      4 N         139.2493  137.8958  163.8228 N.3     1  UNL1       -0.2712
      5 C         138.5513  137.8730  162.4953 C.3     1  UNL1        0.0896
      6 C         140.4828  137.0694  164.0359 C.3     1  UNL1        0.0768
      7 C         141.6464  137.6398  164.7913 C.3     1  UNL1        0.0438
      8 C         144.4411  140.5310  162.7712 C.ar    1  UNL1        0.1724
      9 C         144.7808  139.9811  164.1248 C.ar    1  UNL1        0.0397
     10 C         143.8492  139.0174  164.7982 C.ar    1  UNL1       -0.0009
     11 C         142.5780  138.6035  164.1179 C.ar    1  UNL1       -0.0176
     12 C         142.2384  139.1534  162.7644 C.ar    1  UNL1        0.0358
     13 C         143.1700  140.1171  162.0910 C.ar    1  UNL1        0.1721
     14 C         145.0092  142.9468  162.0025 C.3     1  UNL1        0.2526
     15 O         145.3727  141.4947  162.0979 O.3     1  UNL1       -0.4684
     16 O         142.8303  140.6670  160.7374 O.3     1  UNL1       -0.4684
     17 C         141.6114  140.1773  160.0132 C.3     1  UNL1        0.2526
     18 C         139.5589  142.5585  164.3579 C.3     1  UNL1        0.0981
     19 C         140.5078  142.4782  165.5169 C.ar    1  UNL1       -0.0065
     20 C         141.9625  142.2017  165.2775 C.ar    1  UNL1        0.0000
     21 C         142.9113  142.1214  166.4365 C.ar    1  UNL1        0.0398
     22 C         142.4055  142.3176  167.8349 C.ar    1  UNL1        0.1724
     23 C         140.9508  142.5940  168.0743 C.ar    1  UNL1        0.1721
     24 C         140.0019  142.6743  166.9153 C.ar    1  UNL1        0.0367
     25 O         143.3543  142.2373  168.9938 O.3     1  UNL1       -0.4684
     26 C         143.2785  141.0811  169.9465 C.3     1  UNL1        0.2526
     27 O         140.4448  142.7902  169.4727 O.3     1  UNL1       -0.4684
     28 C         140.4408  144.1601  170.0836 C.3     1  UNL1        0.2526
     29 C         139.4985  144.0494  164.5106 C.3     1  UNL1        0.0169
     30 C         140.6246  144.9014  164.0046 C.3     1  UNL1        0.0014
     31 C         138.3120  144.6884  165.1695 C.3     1  UNL1        0.0014
     32 C         138.6101  142.6388  163.1989 C.1     1  UNL1        0.0752
     33 N         137.6612  142.7191  162.0399 N.1     1  UNL1       -0.1956
@<TRIPOS>BOND
     1    14    15    1
     2    15     8    1
     3     8     9   ar
     4     9    10   ar
     5    10    11   ar
     6    11     7    1
     7     7     6    1
     8     6     4    1
     9     4     5    1
    10     4     3    1
    11     3     2    1
    12     2     1    1
    13     1    18    1
    14    18    32    1
    15    32    33    3
    16    18    19    1
    17    19    20   ar
    18    20    21   ar
    19    21    22   ar
    20    22    25    1
    21    25    26    1
    22    22    23   ar
    23    23    27    1
    24    27    28    1
    25    23    24   ar
    26    18    29    1
    27    29    30    1
    28    29    31    1
    29    11    12   ar
    30    12    13   ar
    31    13    16    1
    32    16    17    1
    33    13     8   ar
    34    24    19   ar
@<TRIPOS>MOLECULE
*****
 33 34 0 0 0
SMALL
GASTEIGER

@<TRIPOS>ATOM
      1 C         142.3580  140.3226  167.0246 C.3     1  UNL1        0.0197
      2 C         142.9298  138.9493  167.2169 C.3     1  UNL1        0.0187
      3 C         143.7006  138.2959  166.1084 C.3     1  UNL1        0.0722
      4 N         143.5543  138.7909  164.7000 N.3     1  UNL1       -0.2712
      5 C         142.2799  138.5462  163.9476 C.3     1  UNL1        0.0896
      6 C         144.6824  139.5305  164.0440 C.3     1  UNL1        0.0768
      7 C         144.8922  140.9874  164.3326 C.3     1  UNL1        0.0438
      8 C         142.6214  144.0934  161.9988 C.ar    1  UNL1        0.1724
      9 C         142.4285  143.9801  163.4820 C.ar    1  UNL1        0.0397
     10 C         143.1854  142.9448  164.2599 C.ar    1  UNL1       -0.0009
     11 C         144.1353  142.0227  163.5547 C.ar    1  UNL1       -0.0176
     12 C         144.3283  142.1360  162.0715 C.ar    1  UNL1        0.0358
     13 C         143.5713  143.1713  161.2936 C.ar    1  UNL1        0.1721
     14 C         140.3894  145.2974  161.4345 C.3     1  UNL1        0.2526
     15 O         141.8645  145.1287  161.2209 O.3     1  UNL1       -0.4684
     16 O         143.7643  143.2845  159.8103 O.3     1  UNL1       -0.4684
     17 C         144.0634  142.0600  158.9973 C.3     1  UNL1        0.2526
     18 C         141.3462  140.8563  167.9949 C.3     1  UNL1        0.0981
     19 C         140.3340  140.9437  166.8914 C.ar    1  UNL1       -0.0065
     20 C         139.4962  139.7485  166.5457 C.ar    1  UNL1        0.0000
     21 C         138.4840  139.8359  165.4421 C.ar    1  UNL1        0.0398
     22 C         138.3096  141.1186  164.6842 C.ar    1  UNL1        0.1724
     23 C         139.1474  142.3138  165.0299 C.ar    1  UNL1        0.1721
     24 C         140.1596  142.2263  166.1335 C.ar    1  UNL1        0.0367
     25 O         137.2974  141.2060  163.5807 O.3     1  UNL1       -0.4684
     26 C         137.6773  140.8190  162.1822 C.3     1  UNL1        0.2526
     27 O         138.9731  143.5965  164.2720 O.3     1  UNL1       -0.4684
     28 C         138.8197  144.8911  165.0139 C.3     1  UNL1        0.2526
     29 C         140.3344  141.3901  168.9652 C.3     1  UNL1        0.0169
     30 C         140.3518  142.8411  169.3446 C.3     1  UNL1        0.0014
     31 C         139.3052  140.4726  169.5561 C.3     1  UNL1        0.0014
     32 C         142.3584  140.7689  169.0985 C.1     1  UNL1        0.0752
     33 N         143.3705  140.6815  170.2020 N.1     1  UNL1       -0.1956
@<TRIPOS>BOND
     1    14    15    1
     2    15     8    1
     3     8     9   ar
     4     9    10   ar
     5    10    11   ar
     6    11     7    1
     7     7     6    1
     8     6     4    1
     9     4     5    1
    10     4     3    1
    11     3     2    1
    12     2     1    1
    13     1    18    1
    14    18    32    1
    15    32    33    3
    16    18    19    1
    17    19    20   ar
    18    20    21   ar
    19    21    22   ar
    20    22    25    1
    21    25    26    1
    22    22    23   ar
    23    23    27    1
    24    27    28    1
    25    23    24   ar
    26    18    29    1
    27    29    30    1
    28    29    31    1
    29    11    12   ar
    30    12    13   ar
    31    13    16    1
    32    16    17    1
    33    13     8   ar
    34    24    19   ar
@<TRIPOS>MOLECULE
*****
 33 34 0 0 0
SMALL
GASTEIGER

@<TRIPOS>ATOM
      1 C         142.5998  139.5078  166.4903 C.3     1  UNL1        0.0197
      2 C         141.3493  138.9471  165.8807 C.3     1  UNL1        0.0187
      3 C         141.4402  137.8828  164.8277 C.3     1  UNL1        0.0722
      4 N         141.2917  138.2456  163.3798 N.3     1  UNL1       -0.2712
      5 C         142.3423  139.0750  162.7028 C.3     1  UNL1        0.0896
      6 C         140.0925  137.7790  162.6089 C.3     1  UNL1        0.0768
      7 C         138.7245  138.2683  162.9815 C.3     1  UNL1        0.0438
      8 C         137.8659  142.6844  163.0868 C.ar    1  UNL1        0.1724
      9 C         137.9202  141.9003  164.3643 C.ar    1  UNL1        0.0397
     10 C         138.2064  140.4282  164.3292 C.ar    1  UNL1       -0.0009
     11 C         138.4383  139.7404  163.0166 C.ar    1  UNL1       -0.0176
     12 C         138.3840  140.5245  161.7391 C.ar    1  UNL1        0.0358
     13 C         138.0978  141.9966  161.7742 C.ar    1  UNL1        0.1721
     14 C         138.6895  145.1417  162.9037 C.3     1  UNL1        0.2526
     15 O         137.5797  144.1565  163.1219 O.3     1  UNL1       -0.4684
     16 O         138.0435  142.7807  160.4966 O.3     1  UNL1       -0.4684
     17 C         138.6497  142.2184  159.2451 C.3     1  UNL1        0.2526
     18 C         142.5130  140.6310  167.4808 C.3     1  UNL1        0.0981
     19 C         142.4602  141.6202  166.3545 C.ar    1  UNL1       -0.0065
     20 C         141.2201  142.4329  166.1275 C.ar    1  UNL1        0.0000
     21 C         141.1674  143.4221  165.0012 C.ar    1  UNL1        0.0398
     22 C         142.3548  143.5987  164.1018 C.ar    1  UNL1        0.1724
     23 C         143.5949  142.7860  164.3288 C.ar    1  UNL1        0.1721
     24 C         143.6476  141.7968  165.4551 C.ar    1  UNL1        0.0367
     25 O         142.3020  144.5879  162.9755 O.3     1  UNL1       -0.4684
     26 C         142.0003  144.1224  161.5819 C.3     1  UNL1        0.2526
     27 O         144.7824  142.9625  163.4294 O.3     1  UNL1       -0.4684
     28 C         145.1719  141.8700  162.4784 C.3     1  UNL1        0.2526
     29 C         142.4262  141.7541  168.4713 C.3     1  UNL1        0.0169
     30 C         141.1067  142.1069  169.0913 C.3     1  UNL1        0.0014
     31 C         143.6589  142.5243  168.8418 C.3     1  UNL1        0.0014
     32 C         142.5657  139.6417  168.6071 C.1     1  UNL1        0.0752
     33 N         142.6185  138.6525  169.7335 N.1     1  UNL1       -0.1956
@<TRIPOS>BOND
     1    14    15    1
     2    15     8    1
     3     8     9   ar
     4     9    10   ar
     5    10    11   ar
     6    11     7    1
     7     7     6    1
     8     6     4    1
     9     4     5    1
    10     4     3    1
    11     3     2    1
    12     2     1    1
    13     1    18    1
    14    18    32    1
    15    32    33    3
    16    18    19    1
    17    19    20   ar
    18    20    21   ar
    19    21    22   ar
    20    22    25    1
    21    25    26    1
    22    22    23   ar
    23    23    27    1
    24    27    28    1
    25    23    24   ar
    26    18    29    1
    27    29    30    1
    28    29    31    1
    29    11    12   ar
    30    12    13   ar
    31    13    16    1
    32    16    17    1
    33    13     8   ar
    34    24    19   ar
@<TRIPOS>MOLECULE
*****
 33 34 0 0 0
SMALL
GASTEIGER

@<TRIPOS>ATOM
      1 C         140.2833  139.2692  165.6356 C.3     1  UNL1        0.0197
      2 C         139.5381  140.1516  164.6785 C.3     1  UNL1        0.0187
      3 C         138.9221  141.4309  165.1622 C.3     1  UNL1        0.0722
      4 N         138.1049  142.2708  164.2258 N.3     1  UNL1       -0.2712
      5 C         137.5402  141.6660  162.9746 C.3     1  UNL1        0.0896
      6 C         137.8524  143.7155  164.5406 C.3     1  UNL1        0.0768
      7 C         138.5306  144.7872  163.7397 C.3     1  UNL1        0.0438
      8 C         142.8190  144.2778  162.4749 C.ar    1  UNL1        0.1724
      9 C         142.4518  144.2052  163.9274 C.ar    1  UNL1        0.0397
     10 C         141.0223  144.3750  164.3490 C.ar    1  UNL1       -0.0009
     11 C         139.9600  144.6174  163.3181 C.ar    1  UNL1       -0.0176
     12 C         140.3273  144.6900  161.8656 C.ar    1  UNL1        0.0358
     13 C         141.7568  144.5201  161.4440 C.ar    1  UNL1        0.1721
     14 C         144.8123  142.7328  161.8505 C.3     1  UNL1        0.2526
     15 O         144.2485  144.1079  162.0533 O.3     1  UNL1       -0.4684
     16 O         142.1240  144.5927  159.9914 O.3     1  UNL1       -0.4684
     17 C         142.2485  143.3337  159.1855 C.3     1  UNL1        0.2526
     18 C         141.7309  138.9575  165.3965 C.3     1  UNL1        0.0981
     19 C         142.1193  139.9556  166.4466 C.ar    1  UNL1       -0.0065
     20 C         142.8095  141.2280  166.0533 C.ar    1  UNL1        0.0000
     21 C         143.1979  142.2262  167.1034 C.ar    1  UNL1        0.0398
     22 C         142.8961  141.9520  168.5469 C.ar    1  UNL1        0.1724
     23 C         142.2060  140.6796  168.9403 C.ar    1  UNL1        0.1721
     24 C         141.8176  139.6814  167.8901 C.ar    1  UNL1        0.0367
     25 O         143.2845  142.9501  169.5971 O.3     1  UNL1       -0.4684
     26 C         144.6543  142.9030  170.2066 C.3     1  UNL1        0.2526
     27 O         141.9042  140.4053  170.3838 O.3     1  UNL1       -0.4684
     28 C         140.4843  140.2234  170.8318 C.3     1  UNL1        0.2526
     29 C         143.1786  138.6458  165.1573 C.3     1  UNL1        0.0169
     30 C         144.0012  138.0223  166.2457 C.3     1  UNL1        0.0014
     31 C         143.8036  138.9576  163.8298 C.3     1  UNL1        0.0014
     32 C         141.3426  137.9593  164.3463 C.1     1  UNL1        0.0752
     33 N         140.9542  136.9612  163.2961 N.1     1  UNL1       -0.1956
@<TRIPOS>BOND
     1    14    15    1
     2    15     8    1
     3     8     9   ar
     4     9    10   ar
     5    10    11   ar
     6    11     7    1
     7     7     6    1
     8     6     4    1
     9     4     5    1
    10     4     3    1
    11     3     2    1
    12     2     1    1
    13     1    18    1
    14    18    32    1
    15    32    33    3
    16    18    19    1
    17    19    20   ar
    18    20    21   ar
    19    21    22   ar
    20    22    25    1
    21    25    26    1
    22    22    23   ar
    23    23    27    1
    24    27    28    1
    25    23    24   ar
    26    18    29    1
    27    29    30    1
    28    29    31    1
    29    11    12   ar
    30    12    13   ar
    31    13    16    1
    32    16    17    1
    33    13     8   ar
    34    24    19   ar
