@<TRIPOS>MOLECULE
*****
 25 27 0 0 0
SMALL
GASTEIGER

@<TRIPOS>ATOM
      1 O         142.4556  139.3298  167.4315 O.2     1  UNL1       -0.2696
      2 C         141.5184  139.6334  166.3004 C.2     1  UNL1        0.2527
      3 N         140.3973  140.6103  166.4970 N.am    1  UNL1       -0.2554
      4 C         141.7023  138.9601  164.9727 C.ar    1  UNL1        0.0578
      5 C         140.7851  137.8461  164.5632 C.ar    1  UNL1        0.0045
      6 C         140.9690  137.1729  163.2355 C.ar    1  UNL1        0.0001
      7 C         142.0701  137.6135  162.3173 C.ar    1  UNL1       -0.0001
      8 C         142.9874  138.7275  162.7267 C.ar    1  UNL1        0.0040
      9 C         142.8035  139.4008  164.0544 C.ar    1  UNL1        0.0758
     10 C         143.7208  140.5148  164.4639 C.3     1  UNL1        0.4187
     11 F         144.6380  141.6288  164.8734 F       1  UNL1       -0.1659
     12 F         142.7859  141.5118  163.8458 F       1  UNL1       -0.1659
     13 F         144.6556  139.5178  165.0820 F       1  UNL1       -0.1659
     14 C         140.2133  141.2836  167.8248 C.ar    1  UNL1        0.0541
     15 C         140.6619  142.7023  168.0148 C.ar    1  UNL1        0.0149
     16 C         140.4780  143.3756  169.3425 C.ar    1  UNL1        0.0013
     17 C         139.8455  142.6303  170.4802 C.ar    1  UNL1        0.0001
     18 C         139.3968  141.2116  170.2901 C.ar    1  UNL1        0.0013
     19 C         139.5808  140.5383  168.9624 C.ar    1  UNL1        0.0149
     20 C         139.4600  140.9140  165.3659 C.3     1  UNL1        0.0971
     21 C         139.6642  141.9571  164.3076 C.3     1  UNL1        0.0387
     22 C         138.4844  141.9157  163.3821 C.3     1  UNL1        0.0704
     23 N         137.5511  140.8469  163.8685 N.3     1  UNL1       -0.2960
     24 C         138.1541  140.2278  165.0946 C.3     1  UNL1        0.0890
     25 H         137.4309  140.1372  163.1458 H       1  UNL1        0.1233
@<TRIPOS>BOND
     1     1     2    2
     2     2     4    1
     3     4     5   ar
     4     5     6   ar
     5     6     7   ar
     6     7     8   ar
     7     8     9   ar
     8     9    10    1
     9    10    11    1
    10    10    12    1
    11    10    13    1
    12     2     3   am
    13     3    14    1
    14    14    15   ar
    15    15    16   ar
    16    16    17   ar
    17    17    18   ar
    18    18    19   ar
    19    20     3    1
    20    20    21    1
    21    21    22    1
    22    22    23    1
    23    23    24    1
    24     9     4   ar
    25    19    14   ar
    26    24    20    1
    27    23    25    1
@<TRIPOS>MOLECULE
*****
 25 27 0 0 0
SMALL
GASTEIGER

@<TRIPOS>ATOM
      1 O         142.1409  140.6698  166.0827 O.2     1  UNL1       -0.2696
      2 C         140.8477  140.5568  165.3310 C.2     1  UNL1        0.2527
      3 N         140.5340  141.5244  164.2287 N.am    1  UNL1       -0.2554
      4 C         139.8683  139.4762  165.6818 C.ar    1  UNL1        0.0578
      5 C         138.7792  139.7454  166.6775 C.ar    1  UNL1        0.0045
      6 C         137.7998  138.6648  167.0283 C.ar    1  UNL1        0.0001
      7 C         137.9095  137.3150  166.3834 C.ar    1  UNL1       -0.0001
      8 C         138.9986  137.0458  165.3877 C.ar    1  UNL1        0.0040
      9 C         139.9780  138.1264  165.0369 C.ar    1  UNL1        0.0758
     10 C         141.0671  137.8571  164.0412 C.3     1  UNL1        0.4187
     11 F         142.1562  137.5879  163.0455 F       1  UNL1       -0.1659
     12 F         140.1037  138.1090  162.9194 F       1  UNL1       -0.1659
     13 F         142.0304  137.6052  165.1630 F       1  UNL1       -0.1659
     14 C         141.5134  142.6051  163.8779 C.ar    1  UNL1        0.0541
     15 C         141.2343  144.0260  164.2690 C.ar    1  UNL1        0.0149
     16 C         142.2137  145.1067  163.9183 C.ar    1  UNL1        0.0013
     17 C         143.4721  144.7663  163.1764 C.ar    1  UNL1        0.0001
     18 C         143.7513  143.3454  162.7853 C.ar    1  UNL1        0.0013
     19 C         142.7719  142.2647  163.1361 C.ar    1  UNL1        0.0149
     20 C         139.2408  141.4114  163.4770 C.3     1  UNL1        0.0971
     21 C         139.0679  140.8404  162.1008 C.3     1  UNL1        0.0387
     22 C         137.6138  140.9257  161.7428 C.3     1  UNL1        0.0704
     23 N         136.8879  141.5494  162.8978 N.3     1  UNL1       -0.2960
     24 C         137.8935  141.8496  163.9696 C.3     1  UNL1        0.0890
     25 H         136.1845  140.9027  163.2545 H       1  UNL1        0.1233
@<TRIPOS>BOND
     1     1     2    2
     2     2     4    1
     3     4     5   ar
     4     5     6   ar
     5     6     7   ar
     6     7     8   ar
     7     8     9   ar
     8     9    10    1
     9    10    11    1
    10    10    12    1
    11    10    13    1
    12     2     3   am
    13     3    14    1
    14    14    15   ar
    15    15    16   ar
    16    16    17   ar
    17    17    18   ar
    18    18    19   ar
    19    20     3    1
    20    20    21    1
    21    21    22    1
    22    22    23    1
    23    23    24    1
    24     9     4   ar
    25    19    14   ar
    26    24    20    1
    27    23    25    1
@<TRIPOS>MOLECULE
*****
 25 27 0 0 0
SMALL
GASTEIGER

@<TRIPOS>ATOM
      1 O         141.4930  139.5444  166.5867 O.2     1  UNL1       -0.2696
      2 C         140.9975  140.6569  165.7110 C.2     1  UNL1        0.2527
      3 N         141.0198  142.0711  166.2104 N.am    1  UNL1       -0.2554
      4 C         140.4798  140.3551  164.3359 C.ar    1  UNL1        0.0578
      5 C         141.3077  140.6937  163.1317 C.ar    1  UNL1        0.0045
      6 C         140.7900  140.3919  161.7567 C.ar    1  UNL1        0.0001
      7 C         139.4444  139.7517  161.5857 C.ar    1  UNL1       -0.0001
      8 C         138.6165  139.4131  162.7898 C.ar    1  UNL1        0.0040
      9 C         139.1341  139.7149  164.1649 C.ar    1  UNL1        0.0758
     10 C         138.3062  139.3763  165.3690 C.3     1  UNL1        0.4187
     11 F         137.4782  139.0378  166.5731 F       1  UNL1       -0.1659
     12 F         138.9178  138.0071  165.4046 F       1  UNL1       -0.1659
     13 F         137.6946  140.7455  165.3334 F       1  UNL1       -0.1659
     14 C         141.5375  142.3729  167.5856 C.ar    1  UNL1        0.0541
     15 C         142.9824  142.1364  167.9115 C.ar    1  UNL1        0.0149
     16 C         143.5002  142.4381  169.2866 C.ar    1  UNL1        0.0013
     17 C         142.5730  142.9764  170.3357 C.ar    1  UNL1        0.0001
     18 C         141.1281  143.2129  170.0097 C.ar    1  UNL1        0.0013
     19 C         140.6103  142.9111  168.6346 C.ar    1  UNL1        0.0149
     20 C         140.5243  143.1836  165.3347 C.3     1  UNL1        0.0971
     21 C         139.0942  143.6046  165.1685 C.3     1  UNL1        0.0387
     22 C         139.0579  144.7517  164.2026 C.3     1  UNL1        0.0704
     23 N         140.4656  145.0396  163.7718 N.3     1  UNL1       -0.2960
     24 C         141.3718  144.0705  164.4716 C.3     1  UNL1        0.0890
     25 H         140.7171  145.9947  164.0268 H       1  UNL1        0.1233
@<TRIPOS>BOND
     1     1     2    2
     2     2     4    1
     3     4     5   ar
     4     5     6   ar
     5     6     7   ar
     6     7     8   ar
     7     8     9   ar
     8     9    10    1
     9    10    11    1
    10    10    12    1
    11    10    13    1
    12     2     3   am
    13     3    14    1
    14    14    15   ar
    15    15    16   ar
    16    16    17   ar
    17    17    18   ar
    18    18    19   ar
    19    20     3    1
    20    20    21    1
    21    21    22    1
    22    22    23    1
    23    23    24    1
    24     9     4   ar
    25    19    14   ar
    26    24    20    1
    27    23    25    1
@<TRIPOS>MOLECULE
*****
 25 27 0 0 0
SMALL
GASTEIGER

@<TRIPOS>ATOM
      1 O         139.9539  140.9950  163.1919 O.2     1  UNL1       -0.2696
      2 C         140.3668  140.4353  164.5209 C.2     1  UNL1        0.2527
      3 N         141.6342  140.9048  165.1714 N.am    1  UNL1       -0.2554
      4 C         139.5121  139.4061  165.1995 C.ar    1  UNL1        0.0578
      5 C         138.6244  139.8032  166.3416 C.ar    1  UNL1        0.0045
      6 C         137.7697  138.7741  167.0201 C.ar    1  UNL1        0.0001
      7 C         137.8028  137.3479  166.5566 C.ar    1  UNL1       -0.0001
      8 C         138.6905  136.9509  165.4145 C.ar    1  UNL1        0.0040
      9 C         139.5451  137.9800  164.7359 C.ar    1  UNL1        0.0758
     10 C         140.4328  137.5829  163.5939 C.3     1  UNL1        0.4187
     11 F         141.3205  137.1858  162.4518 F       1  UNL1       -0.1659
     12 F         139.3227  137.8767  162.6288 F       1  UNL1       -0.1659
     13 F         141.5429  137.2891  164.5589 F       1  UNL1       -0.1659
     14 C         142.4889  141.9340  164.4929 C.ar    1  UNL1        0.0541
     15 C         143.7042  141.5100  163.7226 C.ar    1  UNL1        0.0149
     16 C         144.5588  142.5391  163.0441 C.ar    1  UNL1        0.0013
     17 C         144.1982  143.9922  163.1358 C.ar    1  UNL1        0.0001
     18 C         142.9829  144.4161  163.9061 C.ar    1  UNL1        0.0013
     19 C         142.1283  143.3870  164.5846 C.ar    1  UNL1        0.0149
     20 C         142.0470  140.3451  166.5004 C.3     1  UNL1        0.0971
     21 C         141.6767  140.8995  167.8441 C.3     1  UNL1        0.0387
     22 C         142.3035  140.0298  168.8933 C.3     1  UNL1        0.0704
     23 N         143.0612  138.9378  168.1980 N.3     1  UNL1       -0.2960
     24 C         142.9027  139.1326  166.7192 C.3     1  UNL1        0.0890
     25 H         142.6859  138.0290  168.4696 H       1  UNL1        0.1233
@<TRIPOS>BOND
     1     1     2    2
     2     2     4    1
     3     4     5   ar
     4     5     6   ar
     5     6     7   ar
     6     7     8   ar
     7     8     9   ar
     8     9    10    1
     9    10    11    1
    10    10    12    1
    11    10    13    1
    12     2     3   am
    13     3    14    1
    14    14    15   ar
    15    15    16   ar
    16    16    17   ar
    17    17    18   ar
    18    18    19   ar
    19    20     3    1
    20    20    21    1
    21    21    22    1
    22    22    23    1
    23    23    24    1
    24     9     4   ar
    25    19    14   ar
    26    24    20    1
    27    23    25    1
@<TRIPOS>MOLECULE
*****
 25 27 0 0 0
SMALL
GASTEIGER

@<TRIPOS>ATOM
      1 O         139.4129  140.0309  167.4166 O.2     1  UNL1       -0.2696
      2 C         139.7305  140.8546  166.2038 C.2     1  UNL1        0.2527
      3 N         140.6785  142.0120  166.3105 N.am    1  UNL1       -0.2554
      4 C         139.0999  140.5207  164.8844 C.ar    1  UNL1        0.0578
      5 C         138.0032  141.3855  164.3371 C.ar    1  UNL1        0.0045
      6 C         137.3726  141.0517  163.0177 C.ar    1  UNL1        0.0001
      7 C         137.8387  139.8532  162.2455 C.ar    1  UNL1       -0.0001
      8 C         138.9353  138.9884  162.7928 C.ar    1  UNL1        0.0040
      9 C         139.5659  139.3222  164.1122 C.ar    1  UNL1        0.0758
     10 C         140.6626  138.4575  164.6595 C.3     1  UNL1        0.4187
     11 F         141.7593  137.5927  165.2068 F       1  UNL1       -0.1659
     12 F         141.6839  139.3305  163.9926 F       1  UNL1       -0.1659
     13 F         139.6413  137.5844  165.3264 F       1  UNL1       -0.1659
     14 C         141.3091  142.3459  167.6300 C.ar    1  UNL1        0.0541
     15 C         142.7272  141.9429  167.9069 C.ar    1  UNL1        0.0149
     16 C         143.3578  142.2767  169.2263 C.ar    1  UNL1        0.0013
     17 C         142.5703  143.0135  170.2688 C.ar    1  UNL1        0.0001
     18 C         141.1523  143.4165  169.9920 C.ar    1  UNL1        0.0013
     19 C         140.5216  143.0827  168.6726 C.ar    1  UNL1        0.0149
     20 C         140.9960  142.8357  165.0978 C.3     1  UNL1        0.0971
     21 C         142.0412  142.5228  164.0683 C.3     1  UNL1        0.0387
     22 C         142.0152  143.6106  163.0359 C.3     1  UNL1        0.0704
     23 N         140.9541  144.5959  163.4272 N.3     1  UNL1       -0.2960
     24 C         140.3242  144.1170  164.7016 C.3     1  UNL1        0.0890
     25 H         140.2485  144.6545  162.6930 H       1  UNL1        0.1233
@<TRIPOS>BOND
     1     1     2    2
     2     2     4    1
     3     4     5   ar
     4     5     6   ar
     5     6     7   ar
     6     7     8   ar
     7     8     9   ar
     8     9    10    1
     9    10    11    1
    10    10    12    1
    11    10    13    1
    12     2     3   am
    13     3    14    1
    14    14    15   ar
    15    15    16   ar
    16    16    17   ar
    17    17    18   ar
    18    18    19   ar
    19    20     3    1
    20    20    21    1
    21    21    22    1
    22    22    23    1
    23    23    24    1
    24     9     4   ar
    25    19    14   ar
    26    24    20    1
    27    23    25    1
@<TRIPOS>MOLECULE
*****
 25 27 0 0 0
SMALL
GASTEIGER

@<TRIPOS>ATOM
      1 O         143.0209  140.8416  165.8801 O.2     1  UNL1       -0.2696
      2 C         142.1738  141.7738  165.0654 C.2     1  UNL1        0.2527
      3 N         140.8898  142.3063  165.6289 N.am    1  UNL1       -0.2554
      4 C         142.6109  142.1733  163.6872 C.ar    1  UNL1        0.0578
      5 C         141.9215  141.5981  162.4856 C.ar    1  UNL1        0.0045
      6 C         142.3585  141.9976  161.1074 C.ar    1  UNL1        0.0001
      7 C         143.4849  142.9723  160.9309 C.ar    1  UNL1       -0.0001
      8 C         144.1742  143.5475  162.1325 C.ar    1  UNL1        0.0040
      9 C         143.7372  143.1480  163.5107 C.ar    1  UNL1        0.0758
     10 C         144.4266  143.7233  164.7123 C.3     1  UNL1        0.4187
     11 F         145.1159  144.2985  165.9139 F       1  UNL1       -0.1659
     12 F         145.3403  142.5345  164.7572 F       1  UNL1       -0.1659
     13 F         143.5129  144.9120  164.6674 F       1  UNL1       -0.1659
     14 C         140.4528  141.9067  167.0072 C.ar    1  UNL1        0.0541
     15 C         139.8415  140.5566  167.2382 C.ar    1  UNL1        0.0149
     16 C         139.4044  140.1570  168.6163 C.ar    1  UNL1        0.0013
     17 C         139.5787  141.1076  169.7634 C.ar    1  UNL1        0.0001
     18 C         140.1900  142.4578  169.5324 C.ar    1  UNL1        0.0013
     19 C         140.6270  142.8573  168.1543 C.ar    1  UNL1        0.0149
     20 C         140.0427  143.2384  164.8143 C.3     1  UNL1        0.0971
     21 C         138.7266  142.9043  164.1770 C.3     1  UNL1        0.0387
     22 C         138.2335  144.1277  163.4627 C.3     1  UNL1        0.0704
     23 N         139.2449  145.2179  163.6585 N.3     1  UNL1       -0.2960
     24 C         140.3631  144.6683  164.4938 C.3     1  UNL1        0.0890
     25 H         138.8130  146.0092  164.1358 H       1  UNL1        0.1233
@<TRIPOS>BOND
     1     1     2    2
     2     2     4    1
     3     4     5   ar
     4     5     6   ar
     5     6     7   ar
     6     7     8   ar
     7     8     9   ar
     8     9    10    1
     9    10    11    1
    10    10    12    1
    11    10    13    1
    12     2     3   am
    13     3    14    1
    14    14    15   ar
    15    15    16   ar
    16    16    17   ar
    17    17    18   ar
    18    18    19   ar
    19    20     3    1
    20    20    21    1
    21    21    22    1
    22    22    23    1
    23    23    24    1
    24     9     4   ar
    25    19    14   ar
    26    24    20    1
    27    23    25    1
@<TRIPOS>MOLECULE
*****
 25 27 0 0 0
SMALL
GASTEIGER

@<TRIPOS>ATOM
      1 O         139.7606  139.6267  167.7487 O.2     1  UNL1       -0.2696
      2 C         140.5836  139.9576  166.5390 C.2     1  UNL1        0.2527
      3 N         141.5854  141.0725  166.5956 N.am    1  UNL1       -0.2554
      4 C         140.4047  139.1734  165.2728 C.ar    1  UNL1        0.0578
      5 C         141.2839  137.9908  164.9925 C.ar    1  UNL1        0.0045
      6 C         141.1050  137.2067  163.7264 C.ar    1  UNL1        0.0001
      7 C         140.0471  137.6052  162.7406 C.ar    1  UNL1       -0.0001
      8 C         139.1680  138.7878  163.0209 C.ar    1  UNL1        0.0040
      9 C         139.3468  139.5719  164.2870 C.ar    1  UNL1        0.0758
     10 C         138.4676  140.7545  164.5673 C.3     1  UNL1        0.4187
     11 F         137.5885  141.9371  164.8476 F       1  UNL1       -0.1659
     12 F         137.6478  139.9221  165.5080 F       1  UNL1       -0.1659
     13 F         139.2875  141.5869  163.6266 F       1  UNL1       -0.1659
     14 C         141.7643  141.8567  167.8618 C.ar    1  UNL1        0.0541
     15 C         140.6638  142.7502  168.3524 C.ar    1  UNL1        0.0149
     16 C         140.8426  143.5343  169.6185 C.ar    1  UNL1        0.0013
     17 C         142.1219  143.4249  170.3940 C.ar    1  UNL1        0.0001
     18 C         143.2223  142.5314  169.9034 C.ar    1  UNL1        0.0013
     19 C         143.0435  141.7473  168.6373 C.ar    1  UNL1        0.0149
     20 C         142.4084  141.4034  165.3859 C.3     1  UNL1        0.0971
     21 C         143.6610  140.7010  164.9527 C.3     1  UNL1        0.0387
     22 C         144.1500  141.3582  163.6961 C.3     1  UNL1        0.0704
     23 N         143.1997  142.4668  163.3528 N.3     1  UNL1       -0.2960
     24 C         142.1233  142.4947  164.3971 C.3     1  UNL1        0.0890
     25 H         142.7875  142.2977  162.4353 H       1  UNL1        0.1233
@<TRIPOS>BOND
     1     1     2    2
     2     2     4    1
     3     4     5   ar
     4     5     6   ar
     5     6     7   ar
     6     7     8   ar
     7     8     9   ar
     8     9    10    1
     9    10    11    1
    10    10    12    1
    11    10    13    1
    12     2     3   am
    13     3    14    1
    14    14    15   ar
    15    15    16   ar
    16    16    17   ar
    17    17    18   ar
    18    18    19   ar
    19    20     3    1
    20    20    21    1
    21    21    22    1
    22    22    23    1
    23    23    24    1
    24     9     4   ar
    25    19    14   ar
    26    24    20    1
    27    23    25    1
@<TRIPOS>MOLECULE
*****
 25 27 0 0 0
SMALL
GASTEIGER

@<TRIPOS>ATOM
      1 O         141.2700  144.0745  164.9043 O.2     1  UNL1       -0.2696
      2 C         140.6559  142.7172  164.7293 C.2     1  UNL1        0.2527
      3 N         140.6722  141.7348  165.8626 N.am    1  UNL1       -0.2554
      4 C         140.0254  142.3423  163.4208 C.ar    1  UNL1        0.0578
      5 C         140.7787  141.4914  162.4418 C.ar    1  UNL1        0.0045
      6 C         140.1483  141.1165  161.1334 C.ar    1  UNL1        0.0001
      7 C         138.7646  141.5926  160.8040 C.ar    1  UNL1       -0.0001
      8 C         138.0113  142.4435  161.7829 C.ar    1  UNL1        0.0040
      9 C         138.6417  142.8184  163.0913 C.ar    1  UNL1        0.0758
     10 C         137.8883  143.6694  164.0703 C.3     1  UNL1        0.4187
     11 F         137.1350  144.5203  165.0493 F       1  UNL1       -0.1659
     12 F         137.2851  142.4373  164.6771 F       1  UNL1       -0.1659
     13 F         138.4916  144.9014  163.4635 F       1  UNL1       -0.1659
     14 C         141.3027  142.1097  167.1711 C.ar    1  UNL1        0.0541
     15 C         142.7590  141.8383  167.4069 C.ar    1  UNL1        0.0149
     16 C         143.3895  142.2132  168.7153 C.ar    1  UNL1        0.0013
     17 C         142.5637  142.8594  169.7879 C.ar    1  UNL1        0.0001
     18 C         141.1074  143.1308  169.5521 C.ar    1  UNL1        0.0013
     19 C         140.4770  142.7559  168.2437 C.ar    1  UNL1        0.0149
     20 C         140.0582  140.3775  165.6876 C.3     1  UNL1        0.0971
     21 C         138.6306  140.0127  165.9688 C.3     1  UNL1        0.0387
     22 C         138.4540  138.5565  165.6557 C.3     1  UNL1        0.0704
     23 N         139.7723  138.0212  165.1809 N.3     1  UNL1       -0.2960
     24 C         140.7637  139.1467  165.2006 C.3     1  UNL1        0.0890
     25 H         139.6777  137.6599  164.2317 H       1  UNL1        0.1233
@<TRIPOS>BOND
     1     1     2    2
     2     2     4    1
     3     4     5   ar
     4     5     6   ar
     5     6     7   ar
     6     7     8   ar
     7     8     9   ar
     8     9    10    1
     9    10    11    1
    10    10    12    1
    11    10    13    1
    12     2     3   am
    13     3    14    1
    14    14    15   ar
    15    15    16   ar
    16    16    17   ar
    17    17    18   ar
    18    18    19   ar
    19    20     3    1
    20    20    21    1
    21    21    22    1
    22    22    23    1
    23    23    24    1
    24     9     4   ar
    25    19    14   ar
    26    24    20    1
    27    23    25    1
@<TRIPOS>MOLECULE
*****
 25 27 0 0 0
SMALL
GASTEIGER

@<TRIPOS>ATOM
      1 O         143.4752  141.9892  167.1487 O.2     1  UNL1       -0.2696
      2 C         142.5742  142.4560  166.0441 C.2     1  UNL1        0.2527
      3 N         141.0901  142.5030  166.2560 N.am    1  UNL1       -0.2554
      4 C         143.1575  142.8758  164.7274 C.ar    1  UNL1        0.0578
      5 C         143.2650  144.3323  164.3850 C.ar    1  UNL1        0.0045
      6 C         143.8483  144.7522  163.0684 C.ar    1  UNL1        0.0001
      7 C         144.3239  143.7156  162.0941 C.ar    1  UNL1       -0.0001
      8 C         144.2164  142.2591  162.4365 C.ar    1  UNL1        0.0040
      9 C         143.6332  141.8393  163.7531 C.ar    1  UNL1        0.0758
     10 C         143.5257  140.3828  164.0955 C.3     1  UNL1        0.4187
     11 F         143.4181  138.9264  164.4379 F       1  UNL1       -0.1659
     12 F         144.8903  140.4281  164.7166 F       1  UNL1       -0.1659
     13 F         142.1610  140.3376  163.4744 F       1  UNL1       -0.1659
     14 C         140.5068  142.0831  167.5727 C.ar    1  UNL1        0.0541
     15 C         140.5047  143.0370  168.7303 C.ar    1  UNL1        0.0149
     16 C         139.9215  142.6172  170.0470 C.ar    1  UNL1        0.0013
     17 C         139.3404  141.2435  170.2060 C.ar    1  UNL1        0.0001
     18 C         139.3425  140.2897  169.0484 C.ar    1  UNL1        0.0013
     19 C         139.9257  140.7094  167.7317 C.ar    1  UNL1        0.0149
     20 C         140.1891  142.9697  165.1513 C.3     1  UNL1        0.0971
     21 C         139.6694  144.3648  164.9674 C.3     1  UNL1        0.0387
     22 C         138.8087  144.3807  163.7390 C.3     1  UNL1        0.0704
     23 N         138.7964  142.9955  163.1637 N.3     1  UNL1       -0.2960
     24 C         139.6496  142.1235  164.0365 C.3     1  UNL1        0.0890
     25 H         139.1733  143.0109  162.2160 H       1  UNL1        0.1233
@<TRIPOS>BOND
     1     1     2    2
     2     2     4    1
     3     4     5   ar
     4     5     6   ar
     5     6     7   ar
     6     7     8   ar
     7     8     9   ar
     8     9    10    1
     9    10    11    1
    10    10    12    1
    11    10    13    1
    12     2     3   am
    13     3    14    1
    14    14    15   ar
    15    15    16   ar
    16    16    17   ar
    17    17    18   ar
    18    18    19   ar
    19    20     3    1
    20    20    21    1
    21    21    22    1
    22    22    23    1
    23    23    24    1
    24     9     4   ar
    25    19    14   ar
    26    24    20    1
    27    23    25    1
