@<TRIPOS>MOLECULE
*****
 27 29 0 0 0
SMALL
GASTEIGER

@<TRIPOS>ATOM
      1 C         138.7663  139.2964  165.9751 C.ar    1  UNL1        0.1582
      2 C         140.1525  139.6274  166.4431 C.ar    1  UNL1        0.0576
      3 C         140.7325  140.9834  166.1699 C.ar    1  UNL1        0.1365
      4 N         139.9265  142.0085  165.4287 N.ar    1  UNL1       -0.1988
      5 C         138.5404  141.6776  164.9607 C.ar    1  UNL1        0.2182
      6 N         137.9603  140.3215  165.2339 N.ar    1  UNL1       -0.2098
      7 F         137.6061  136.5843  166.5215 F       1  UNL1       -0.1644
      8 C         138.1862  137.9404  166.2483 C.3     1  UNL1        0.4350
      9 F         139.1756  137.3266  165.3025 F       1  UNL1       -0.1644
     10 F         137.1969  138.5541  167.1941 F       1  UNL1       -0.1644
     11 N         142.1188  141.3143  166.6379 N.pl3   1  UNL1       -0.2978
     12 H         142.2768  141.5502  167.5806 H       1  UNL1        0.1536
     13 C         143.2641  141.2858  165.6697 C.ar    1  UNL1        0.0494
     14 C         143.9264  142.5658  165.2535 C.ar    1  UNL1        0.0146
     15 C         145.0717  142.5372  164.2852 C.ar    1  UNL1        0.0013
     16 C         145.5546  141.2288  163.7332 C.ar    1  UNL1        0.0001
     17 C         144.8923  139.9489  164.1494 C.ar    1  UNL1        0.0013
     18 C         143.7470  139.9774  165.1176 C.ar    1  UNL1        0.0146
     19 N         137.7343  142.7027  164.2194 N.pl3   1  UNL1       -0.2978
     20 H         137.2011  143.3638  164.7174 H       1  UNL1        0.1500
     21 C         137.7405  142.7205  162.7196 C.3     1  UNL1        0.1359
     22 C         138.6332  143.6759  161.9845 C.ar    1  UNL1        0.0788
     23 C         139.0701  144.9513  162.6423 C.ar    1  UNL1        0.0165
     24 C         139.9628  145.9066  161.9072 C.ar    1  UNL1        0.0029
     25 C         140.4187  145.5866  160.5145 C.ar    1  UNL1        0.0207
     26 C         139.9818  144.3113  159.8567 C.ar    1  UNL1        0.0985
     27 N         139.0891  143.3560  160.5918 N.ar    1  UNL1       -0.2464
@<TRIPOS>BOND
     1     7     8    1
     2     8     9    1
     3     8    10    1
     4     8     1    1
     5     1     2   ar
     6     2     3   ar
     7     3    11    1
     8    11    13    1
     9    13    14   ar
    10    14    15   ar
    11    15    16   ar
    12    16    17   ar
    13    17    18   ar
    14     3     4   ar
    15     4     5   ar
    16     5    19    1
    17    19    21    1
    18    21    22    1
    19    22    23   ar
    20    23    24   ar
    21    24    25   ar
    22    25    26   ar
    23    26    27   ar
    24     5     6   ar
    25     6     1   ar
    26    18    13   ar
    27    27    22   ar
    28    11    12    1
    29    19    20    1
@<TRIPOS>MOLECULE
*****
 27 29 0 0 0
SMALL
GASTEIGER

@<TRIPOS>ATOM
      1 C         138.5314  139.1069  165.9416 C.ar    1  UNL1        0.1582
      2 C         139.8415  139.6472  166.4331 C.ar    1  UNL1        0.0576
      3 C         140.4140  140.8936  165.8260 C.ar    1  UNL1        0.1365
      4 N         139.6764  141.5998  164.7273 N.ar    1  UNL1       -0.1988
      5 C         138.3662  141.0595  164.2357 C.ar    1  UNL1        0.2182
      6 N         137.7938  139.8131  164.8429 N.ar    1  UNL1       -0.2098
      7 F         137.3864  136.6141  167.1560 F       1  UNL1       -0.1644
      8 C         137.9589  137.8605  166.5488 C.3     1  UNL1        0.4350
      9 F         137.3186  138.6808  167.6291 F       1  UNL1       -0.1644
     10 F         138.5992  137.0401  165.4685 F       1  UNL1       -0.1644
     11 N         141.7242  141.4339  166.3175 N.pl3   1  UNL1       -0.2978
     12 H         142.5277  141.3660  165.7527 H       1  UNL1        0.1536
     13 C         141.8101  142.0776  167.6697 C.ar    1  UNL1        0.0494
     14 C         140.6272  142.8127  168.2269 C.ar    1  UNL1        0.0146
     15 C         140.7131  143.4564  169.5790 C.ar    1  UNL1        0.0013
     16 C         141.9819  143.3649  170.3739 C.ar    1  UNL1        0.0001
     17 C         143.1647  142.6298  169.8167 C.ar    1  UNL1        0.0013
     18 C         143.0788  141.9862  168.4646 C.ar    1  UNL1        0.0146
     19 N         137.6285  141.7657  163.1370 N.pl3   1  UNL1       -0.2978
     20 H         137.1423  141.2455  162.4571 H       1  UNL1        0.1500
     21 C         137.6317  143.2643  163.0741 C.3     1  UNL1        0.1359
     22 C         138.6353  143.9769  162.2167 C.ar    1  UNL1        0.0788
     23 C         139.3289  145.2019  162.7345 C.ar    1  UNL1        0.0165
     24 C         140.3324  145.9144  161.8771 C.ar    1  UNL1        0.0029
     25 C         140.6423  145.4019  160.5018 C.ar    1  UNL1        0.0207
     26 C         139.9486  144.1770  159.9840 C.ar    1  UNL1        0.0985
     27 N         138.9451  143.4644  160.8414 N.ar    1  UNL1       -0.2464
@<TRIPOS>BOND
     1     7     8    1
     2     8     9    1
     3     8    10    1
     4     8     1    1
     5     1     2   ar
     6     2     3   ar
     7     3    11    1
     8    11    13    1
     9    13    14   ar
    10    14    15   ar
    11    15    16   ar
    12    16    17   ar
    13    17    18   ar
    14     3     4   ar
    15     4     5   ar
    16     5    19    1
    17    19    21    1
    18    21    22    1
    19    22    23   ar
    20    23    24   ar
    21    24    25   ar
    22    25    26   ar
    23    26    27   ar
    24     5     6   ar
    25     6     1   ar
    26    18    13   ar
    27    27    22   ar
    28    11    12    1
    29    19    20    1
@<TRIPOS>MOLECULE
*****
 27 29 0 0 0
SMALL
GASTEIGER

@<TRIPOS>ATOM
      1 C         138.9258  138.9859  165.5312 C.ar    1  UNL1        0.1582
      2 C         139.1449  140.2729  166.2699 C.ar    1  UNL1        0.0576
      3 C         139.8953  141.3948  165.6157 C.ar    1  UNL1        0.1365
      4 N         140.4268  141.2299  164.2228 N.ar    1  UNL1       -0.1988
      5 C         140.2077  139.9429  163.4840 C.ar    1  UNL1        0.2182
      6 N         139.4572  138.8210  164.1382 N.ar    1  UNL1       -0.2098
      7 F         137.4249  136.7420  166.8396 F       1  UNL1       -0.1644
      8 C         138.1753  137.8640  166.1854 C.3     1  UNL1        0.4350
      9 F         137.3948  138.8575  166.9938 F       1  UNL1       -0.1644
     10 F         138.9559  136.8705  165.3769 F       1  UNL1       -0.1644
     11 N         140.1144  142.6818  166.3545 N.pl3   1  UNL1       -0.2978
     12 H         139.6819  143.5090  166.0414 H       1  UNL1        0.1536
     13 C         140.9924  142.7085  167.5704 C.ar    1  UNL1        0.0494
     14 C         140.4557  143.2267  168.8718 C.ar    1  UNL1        0.0146
     15 C         141.3337  143.2534  170.0877 C.ar    1  UNL1        0.0013
     16 C         142.7484  142.7620  170.0022 C.ar    1  UNL1        0.0001
     17 C         143.2850  142.2438  168.7008 C.ar    1  UNL1        0.0013
     18 C         142.4070  142.2171  167.4849 C.ar    1  UNL1        0.0146
     19 N         140.7392  139.7779  162.0910 N.pl3   1  UNL1       -0.2978
     20 H         140.1755  140.0112  161.3183 H       1  UNL1        0.1500
     21 C         142.1293  139.2575  161.8754 C.3     1  UNL1        0.1359
     22 C         143.3029  139.9904  162.4549 C.ar    1  UNL1        0.0788
     23 C         143.9833  139.4643  163.6838 C.ar    1  UNL1        0.0165
     24 C         145.1567  140.1972  164.2632 C.ar    1  UNL1        0.0029
     25 C         145.6498  141.4562  163.6138 C.ar    1  UNL1        0.0207
     26 C         144.9694  141.9823  162.3849 C.ar    1  UNL1        0.0985
     27 N         143.7959  141.2494  161.8055 N.ar    1  UNL1       -0.2464
@<TRIPOS>BOND
     1     7     8    1
     2     8     9    1
     3     8    10    1
     4     8     1    1
     5     1     2   ar
     6     2     3   ar
     7     3    11    1
     8    11    13    1
     9    13    14   ar
    10    14    15   ar
    11    15    16   ar
    12    16    17   ar
    13    17    18   ar
    14     3     4   ar
    15     4     5   ar
    16     5    19    1
    17    19    21    1
    18    21    22    1
    19    22    23   ar
    20    23    24   ar
    21    24    25   ar
    22    25    26   ar
    23    26    27   ar
    24     5     6   ar
    25     6     1   ar
    26    18    13   ar
    27    27    22   ar
    28    11    12    1
    29    19    20    1
@<TRIPOS>MOLECULE
*****
 27 29 0 0 0
SMALL
GASTEIGER

@<TRIPOS>ATOM
      1 C         143.7307  143.5201  163.7330 C.ar    1  UNL1        0.1582
      2 C         143.6324  142.0968  163.2699 C.ar    1  UNL1        0.0576
      3 C         142.8324  141.7597  162.0466 C.ar    1  UNL1        0.1365
      4 N         142.1308  142.8459  161.2864 N.ar    1  UNL1       -0.1988
      5 C         142.2292  144.2692  161.7495 C.ar    1  UNL1        0.2182
      6 N         143.0291  144.6063  162.9728 N.ar    1  UNL1       -0.2098
      7 F         145.3306  144.1943  166.1796 F       1  UNL1       -0.1644
      8 C         144.5307  143.8572  164.9563 C.3     1  UNL1        0.4350
      9 F         144.1961  145.3081  164.7752 F       1  UNL1       -0.1644
     10 F         144.8652  142.4062  165.1374 F       1  UNL1       -0.1644
     11 N         142.7341  140.3363  161.5835 N.pl3   1  UNL1       -0.2978
     12 H         143.3449  140.0017  160.8876 H       1  UNL1        0.1536
     13 C         141.7051  139.4228  162.1806 C.ar    1  UNL1        0.0494
     14 C         140.2578  139.8169  162.1734 C.ar    1  UNL1        0.0146
     15 C         139.2287  138.9033  162.7706 C.ar    1  UNL1        0.0013
     16 C         139.6471  137.5956  163.3748 C.ar    1  UNL1        0.0001
     17 C         141.0943  137.2016  163.3819 C.ar    1  UNL1        0.0013
     18 C         142.1233  138.1151  162.7848 C.ar    1  UNL1        0.0146
     19 N         141.5276  145.3555  160.9893 N.pl3   1  UNL1       -0.2978
     20 H         141.9986  145.8370  160.2713 H       1  UNL1        0.1500
     21 C         140.1084  145.7081  161.3231 C.3     1  UNL1        0.1359
     22 C         139.2904  144.7915  162.1839 C.ar    1  UNL1        0.0788
     23 C         139.1954  145.0359  163.6608 C.ar    1  UNL1        0.0165
     24 C         138.3775  144.1194  164.5215 C.ar    1  UNL1        0.0029
     25 C         137.6545  142.9585  163.9054 C.ar    1  UNL1        0.0207
     26 C         137.7495  142.7141  162.4285 C.ar    1  UNL1        0.0985
     27 N         138.5674  143.6306  161.5678 N.ar    1  UNL1       -0.2464
@<TRIPOS>BOND
     1     7     8    1
     2     8     9    1
     3     8    10    1
     4     8     1    1
     5     1     2   ar
     6     2     3   ar
     7     3    11    1
     8    11    13    1
     9    13    14   ar
    10    14    15   ar
    11    15    16   ar
    12    16    17   ar
    13    17    18   ar
    14     3     4   ar
    15     4     5   ar
    16     5    19    1
    17    19    21    1
    18    21    22    1
    19    22    23   ar
    20    23    24   ar
    21    24    25   ar
    22    25    26   ar
    23    26    27   ar
    24     5     6   ar
    25     6     1   ar
    26    18    13   ar
    27    27    22   ar
    28    11    12    1
    29    19    20    1
@<TRIPOS>MOLECULE
*****
 27 29 0 0 0
SMALL
GASTEIGER

@<TRIPOS>ATOM
      1 C         138.8566  138.7989  165.5270 C.ar    1  UNL1        0.1582
      2 C         139.0110  140.2573  165.8418 C.ar    1  UNL1        0.0576
      3 C         139.8445  141.1323  164.9532 C.ar    1  UNL1        0.1365
      4 N         140.5238  140.5489  163.7499 N.ar    1  UNL1       -0.1988
      5 C         140.3694  139.0904  163.4350 C.ar    1  UNL1        0.2182
      6 N         139.5359  138.2155  164.3236 N.ar    1  UNL1       -0.2098
      7 F         137.1895  137.0489  167.3042 F       1  UNL1       -0.1644
      8 C         138.0231  137.9239  166.4156 C.3     1  UNL1        0.4350
      9 F         137.6468  139.1194  167.2398 F       1  UNL1       -0.1644
     10 F         138.3994  136.7285  165.5914 F       1  UNL1       -0.1644
     11 N         139.9989  142.5908  165.2681 N.pl3   1  UNL1       -0.2978
     12 H         139.2669  143.0792  165.7096 H       1  UNL1        0.1536
     13 C         141.2684  143.3050  164.9103 C.ar    1  UNL1        0.0494
     14 C         142.5674  142.8814  165.5295 C.ar    1  UNL1        0.0146
     15 C         143.8370  143.5957  165.1717 C.ar    1  UNL1        0.0013
     16 C         143.8076  144.7336  164.1948 C.ar    1  UNL1        0.0001
     17 C         142.5087  145.1572  163.5756 C.ar    1  UNL1        0.0013
     18 C         141.2391  144.4429  163.9334 C.ar    1  UNL1        0.0146
     19 N         141.0487  138.5069  162.2316 N.pl3   1  UNL1       -0.2978
     20 H         140.5388  138.3574  161.4028 H       1  UNL1        0.1500
     21 C         142.5046  138.1512  162.2910 C.3     1  UNL1        0.1359
     22 C         143.5180  139.1965  162.6527 C.ar    1  UNL1        0.0788
     23 C         144.2132  139.1393  163.9805 C.ar    1  UNL1        0.0165
     24 C         145.2265  140.1846  164.3421 C.ar    1  UNL1        0.0029
     25 C         145.5445  141.2869  163.3758 C.ar    1  UNL1        0.0207
     26 C         144.8492  141.3440  162.0479 C.ar    1  UNL1        0.0985
     27 N         143.8360  140.2988  161.6864 N.ar    1  UNL1       -0.2464
@<TRIPOS>BOND
     1     7     8    1
     2     8     9    1
     3     8    10    1
     4     8     1    1
     5     1     2   ar
     6     2     3   ar
     7     3    11    1
     8    11    13    1
     9    13    14   ar
    10    14    15   ar
    11    15    16   ar
    12    16    17   ar
    13    17    18   ar
    14     3     4   ar
    15     4     5   ar
    16     5    19    1
    17    19    21    1
    18    21    22    1
    19    22    23   ar
    20    23    24   ar
    21    24    25   ar
    22    25    26   ar
    23    26    27   ar
    24     5     6   ar
    25     6     1   ar
    26    18    13   ar
    27    27    22   ar
    28    11    12    1
    29    19    20    1
@<TRIPOS>MOLECULE
*****
 27 29 0 0 0
SMALL
GASTEIGER

@<TRIPOS>ATOM
      1 C         140.2047  140.6086  168.9667 C.ar    1  UNL1        0.1582
      2 C         141.0175  141.5190  168.0945 C.ar    1  UNL1        0.0576
      3 C         140.8226  141.5040  166.6073 C.ar    1  UNL1        0.1365
      4 N         139.8150  140.5786  165.9922 N.ar    1  UNL1       -0.1988
      5 C         139.0023  139.6682  166.8644 C.ar    1  UNL1        0.2182
      6 N         139.1972  139.6832  168.3516 N.ar    1  UNL1       -0.2098
      7 F         140.5944  140.6387  171.9411 F       1  UNL1       -0.1644
      8 C         140.3996  140.6237  170.4539 C.3     1  UNL1        0.4350
      9 F         141.0346  139.2665  170.3844 F       1  UNL1       -0.1644
     10 F         139.7646  141.9809  170.5233 F       1  UNL1       -0.1644
     11 N         141.6354  142.4144  165.7352 N.pl3   1  UNL1       -0.2978
     12 H         141.3200  143.3281  165.5485 H       1  UNL1        0.1536
     13 C         142.9287  141.9326  165.1475 C.ar    1  UNL1        0.0494
     14 C         143.9687  142.9215  164.7111 C.ar    1  UNL1        0.0146
     15 C         145.2620  142.4397  164.1235 C.ar    1  UNL1        0.0013
     16 C         145.5152  140.9689  163.9722 C.ar    1  UNL1        0.0001
     17 C         144.4752  139.9801  164.4086 C.ar    1  UNL1        0.0013
     18 C         143.1819  140.4619  164.9963 C.ar    1  UNL1        0.0146
     19 N         137.9947  138.7427  166.2493 N.pl3   1  UNL1       -0.2978
     20 H         137.0338  138.9468  166.3158 H       1  UNL1        0.1500
     21 C         138.4509  137.5064  165.5329 C.3     1  UNL1        0.1359
     22 C         139.3110  137.6228  164.3094 C.ar    1  UNL1        0.0788
     23 C         140.7953  137.4348  164.4154 C.ar    1  UNL1        0.0165
     24 C         141.6553  137.5512  163.1919 C.ar    1  UNL1        0.0029
     25 C         141.0308  137.8555  161.8625 C.ar    1  UNL1        0.0207
     26 C         139.5465  138.0435  161.7565 C.ar    1  UNL1        0.0985
     27 N         138.6865  137.9271  162.9800 N.ar    1  UNL1       -0.2464
@<TRIPOS>BOND
     1     7     8    1
     2     8     9    1
     3     8    10    1
     4     8     1    1
     5     1     2   ar
     6     2     3   ar
     7     3    11    1
     8    11    13    1
     9    13    14   ar
    10    14    15   ar
    11    15    16   ar
    12    16    17   ar
    13    17    18   ar
    14     3     4   ar
    15     4     5   ar
    16     5    19    1
    17    19    21    1
    18    21    22    1
    19    22    23   ar
    20    23    24   ar
    21    24    25   ar
    22    25    26   ar
    23    26    27   ar
    24     5     6   ar
    25     6     1   ar
    26    18    13   ar
    27    27    22   ar
    28    11    12    1
    29    19    20    1
@<TRIPOS>MOLECULE
*****
 27 29 0 0 0
SMALL
GASTEIGER

@<TRIPOS>ATOM
      1 C         138.9125  138.7284  164.9296 C.ar    1  UNL1        0.1582
      2 C         140.4090  138.6281  164.9515 C.ar    1  UNL1        0.0576
      3 C         141.2149  139.1866  163.8163 C.ar    1  UNL1        0.1365
      4 N         140.5243  139.8455  162.6592 N.ar    1  UNL1       -0.1988
      5 C         139.0279  139.9459  162.6373 C.ar    1  UNL1        0.2182
      6 N         138.2220  139.3874  163.7725 N.ar    1  UNL1       -0.2098
      7 F         137.3008  137.6114  167.1999 F       1  UNL1       -0.1644
      8 C         138.1067  138.1699  166.0647 C.3     1  UNL1        0.4350
      9 F         137.6615  139.5549  166.4302 F       1  UNL1       -0.1644
     10 F         138.5518  136.7849  165.6992 F       1  UNL1       -0.1644
     11 N         142.7114  139.0862  163.8383 N.pl3   1  UNL1       -0.2978
     12 H         143.1484  138.2149  163.6997 H       1  UNL1        0.1536
     13 C         143.5420  140.3132  164.0715 C.ar    1  UNL1        0.0494
     14 C         144.9419  140.3840  163.5372 C.ar    1  UNL1        0.0146
     15 C         145.7726  141.6110  163.7704 C.ar    1  UNL1        0.0013
     16 C         145.2033  142.7673  164.5379 C.ar    1  UNL1        0.0001
     17 C         143.8035  142.6965  165.0722 C.ar    1  UNL1        0.0013
     18 C         142.9729  141.4695  164.8390 C.ar    1  UNL1        0.0146
     19 N         138.3372  140.6049  161.4802 N.pl3   1  UNL1       -0.2978
     20 H         137.8499  140.0586  160.8219 H       1  UNL1        0.1500
     21 C         138.3891  142.0960  161.3261 C.3     1  UNL1        0.1359
     22 C         138.6850  142.9629  162.5140 C.ar    1  UNL1        0.0788
     23 C         137.5924  143.3064  163.4826 C.ar    1  UNL1        0.0165
     24 C         137.8883  144.1733  164.6704 C.ar    1  UNL1        0.0029
     25 C         139.2769  144.6966  164.8896 C.ar    1  UNL1        0.0207
     26 C         140.3695  144.3531  163.9210 C.ar    1  UNL1        0.0985
     27 N         140.0735  143.4863  162.7332 N.ar    1  UNL1       -0.2464
@<TRIPOS>BOND
     1     7     8    1
     2     8     9    1
     3     8    10    1
     4     8     1    1
     5     1     2   ar
     6     2     3   ar
     7     3    11    1
     8    11    13    1
     9    13    14   ar
    10    14    15   ar
    11    15    16   ar
    12    16    17   ar
    13    17    18   ar
    14     3     4   ar
    15     4     5   ar
    16     5    19    1
    17    19    21    1
    18    21    22    1
    19    22    23   ar
    20    23    24   ar
    21    24    25   ar
    22    25    26   ar
    23    26    27   ar
    24     5     6   ar
    25     6     1   ar
    26    18    13   ar
    27    27    22   ar
    28    11    12    1
    29    19    20    1
@<TRIPOS>MOLECULE
*****
 27 29 0 0 0
SMALL
GASTEIGER

@<TRIPOS>ATOM
      1 C         140.3812  139.9270  168.6337 C.ar    1  UNL1        0.1582
      2 C         141.7140  139.6873  167.9886 C.ar    1  UNL1        0.0576
      3 C         141.8067  139.5105  166.5019 C.ar    1  UNL1        0.1365
      4 N         140.5666  139.5733  165.6604 N.ar    1  UNL1       -0.1988
      5 C         139.2338  139.8130  166.3055 C.ar    1  UNL1        0.2182
      6 N         139.1411  139.9898  167.7922 N.ar    1  UNL1       -0.2098
      7 F         140.1958  140.2806  171.6070 F       1  UNL1       -0.1644
      8 C         140.2885  140.1038  170.1204 C.3     1  UNL1        0.4350
      9 F         141.4191  139.1357  170.3060 F       1  UNL1       -0.1644
     10 F         139.1579  141.0719  169.9347 F       1  UNL1       -0.1644
     11 N         143.1395  139.2708  165.8568 N.pl3   1  UNL1       -0.2978
     12 H         143.5416  138.3724  165.8766 H       1  UNL1        0.1536
     13 C         143.8598  140.4001  165.1815 C.ar    1  UNL1        0.0494
     14 C         143.4886  141.8196  165.4934 C.ar    1  UNL1        0.0146
     15 C         144.2088  142.9488  164.8181 C.ar    1  UNL1        0.0013
     16 C         145.3002  142.6585  163.8308 C.ar    1  UNL1        0.0001
     17 C         145.6714  141.2391  163.5190 C.ar    1  UNL1        0.0013
     18 C         144.9511  140.1098  164.1943 C.ar    1  UNL1        0.0146
     19 N         137.9936  139.8759  165.4640 N.pl3   1  UNL1       -0.2978
     20 H         137.1905  139.3738  165.7327 H       1  UNL1        0.1500
     21 C         137.9772  140.7036  164.2132 C.3     1  UNL1        0.1359
     22 C         138.6018  142.0674  164.2080 C.ar    1  UNL1        0.0788
     23 C         137.8482  143.2396  164.7627 C.ar    1  UNL1        0.0165
     24 C         138.4728  144.6033  164.7575 C.ar    1  UNL1        0.0029
     25 C         139.8512  144.7947  164.1976 C.ar    1  UNL1        0.0207
     26 C         140.6049  143.6225  163.6429 C.ar    1  UNL1        0.0985
     27 N         139.9802  142.2588  163.6481 N.ar    1  UNL1       -0.2464
@<TRIPOS>BOND
     1     7     8    1
     2     8     9    1
     3     8    10    1
     4     8     1    1
     5     1     2   ar
     6     2     3   ar
     7     3    11    1
     8    11    13    1
     9    13    14   ar
    10    14    15   ar
    11    15    16   ar
    12    16    17   ar
    13    17    18   ar
    14     3     4   ar
    15     4     5   ar
    16     5    19    1
    17    19    21    1
    18    21    22    1
    19    22    23   ar
    20    23    24   ar
    21    24    25   ar
    22    25    26   ar
    23    26    27   ar
    24     5     6   ar
    25     6     1   ar
    26    18    13   ar
    27    27    22   ar
    28    11    12    1
    29    19    20    1
@<TRIPOS>MOLECULE
*****
 27 29 0 0 0
SMALL
GASTEIGER

@<TRIPOS>ATOM
      1 C         141.2688  138.5093  164.2766 C.ar    1  UNL1        0.1582
      2 C         141.3158  138.6758  165.7666 C.ar    1  UNL1        0.0576
      3 C         142.5490  139.2237  166.4215 C.ar    1  UNL1        0.1365
      4 N         143.7353  139.6050  165.5865 N.ar    1  UNL1       -0.1988
      5 C         143.6883  139.4386  164.0965 C.ar    1  UNL1        0.2182
      6 N         142.4550  138.8907  163.4416 N.ar    1  UNL1       -0.2098
      7 F         138.8023  137.4136  162.9667 F       1  UNL1       -0.1644
      8 C         140.0355  137.9615  163.6217 C.3     1  UNL1        0.4350
      9 F         139.2444  139.1275  164.1360 F       1  UNL1       -0.1644
     10 F         140.8267  136.7955  163.1073 F       1  UNL1       -0.1644
     11 N         142.5960  139.3901  167.9116 N.pl3   1  UNL1       -0.2978
     12 H         143.1781  138.8100  168.4536 H       1  UNL1        0.1536
     13 C         141.7560  140.4405  168.5757 C.ar    1  UNL1        0.0494
     14 C         140.4342  140.0715  169.1814 C.ar    1  UNL1        0.0146
     15 C         139.5942  141.1219  169.8456 C.ar    1  UNL1        0.0013
     16 C         140.0759  142.5412  169.9040 C.ar    1  UNL1        0.0001
     17 C         141.3977  142.9102  169.2983 C.ar    1  UNL1        0.0013
     18 C         142.2377  141.8598  168.6342 C.ar    1  UNL1        0.0146
     19 N         144.8746  139.8200  163.2614 N.pl3   1  UNL1       -0.2978
     20 H         145.1541  139.2458  162.5122 H       1  UNL1        0.1500
     21 C         145.6348  141.0762  163.5679 C.3     1  UNL1        0.1359
     22 C         144.9215  142.3954  163.6011 C.ar    1  UNL1        0.0788
     23 C         144.7249  143.1090  164.9057 C.ar    1  UNL1        0.0165
     24 C         144.0116  144.4281  164.9389 C.ar    1  UNL1        0.0029
     25 C         143.4950  145.0336  163.6674 C.ar    1  UNL1        0.0207
     26 C         143.6917  144.3199  162.3629 C.ar    1  UNL1        0.0985
     27 N         144.4049  143.0008  162.3297 N.ar    1  UNL1       -0.2464
@<TRIPOS>BOND
     1     7     8    1
     2     8     9    1
     3     8    10    1
     4     8     1    1
     5     1     2   ar
     6     2     3   ar
     7     3    11    1
     8    11    13    1
     9    13    14   ar
    10    14    15   ar
    11    15    16   ar
    12    16    17   ar
    13    17    18   ar
    14     3     4   ar
    15     4     5   ar
    16     5    19    1
    17    19    21    1
    18    21    22    1
    19    22    23   ar
    20    23    24   ar
    21    24    25   ar
    22    25    26   ar
    23    26    27   ar
    24     5     6   ar
    25     6     1   ar
    26    18    13   ar
    27    27    22   ar
    28    11    12    1
    29    19    20    1
