@<TRIPOS>MOLECULE
*****
 34 37 0 0 0
SMALL
GASTEIGER

@<TRIPOS>ATOM
      1 C         141.0374  138.2018  155.9712 C.2     1  UNL1        0.2383
      2 O         139.6895  138.4311  155.3543 O.2     1  UNL1       -0.2735
      3 N         141.1851  138.1792  157.4637 N.am    1  UNL1       -0.2695
      4 C         142.5330  137.9498  158.0806 C.3     1  UNL1        0.1184
      5 C         142.6808  137.9272  159.5731 C.3     1  UNL1        0.1299
      6 N         141.4806  138.1340  160.4488 N.ar    1  UNL1       -0.3005
      7 C         140.1327  138.3633  159.8319 C.ar    1  UNL1        0.1416
      8 N         139.1382  138.5354  160.9417 N.ar    1  UNL1       -0.2279
      9 C         139.8716  138.4123  162.2444 C.ar    1  UNL1        0.1125
     10 C         141.3192  138.1642  161.9398 C.ar    1  UNL1        0.1318
     11 C         139.9850  138.3859  158.3394 C.3     1  UNL1        0.1578
     12 C         139.2640  138.5186  163.6118 C.ar    1  UNL1        0.0205
     13 C         139.0897  137.2888  164.4527 C.ar    1  UNL1        0.0039
     14 C         138.4821  137.3951  165.8200 C.ar    1  UNL1        0.0297
     15 C         138.0488  138.7312  166.3463 C.ar    1  UNL1        0.1401
     16 F         137.4412  138.8375  167.7137 F       1  UNL1       -0.2042
     17 C         138.2231  139.9610  165.5054 C.ar    1  UNL1        0.0297
     18 C         138.8307  139.8547  164.1381 C.ar    1  UNL1        0.0039
     19 C         141.9855  136.5164  155.0993 C.3     1  UNL1        0.0249
     20 C         142.2375  137.9950  155.0955 C.3     1  UNL1        0.1089
     21 C         142.4895  139.4737  155.0917 C.3     1  UNL1        0.0249
     22 N         143.4377  137.7882  154.2198 N.3     1  UNL1       -0.3164
     23 H         143.8713  138.6893  154.0188 H       1  UNL1        0.1192
     24 H         143.1494  137.3473  153.3463 H       1  UNL1        0.1192
     25 N         142.4134  137.9790  162.9489 N.pl3   1  UNL1       -0.2980
     26 H         143.0516  137.2356  162.8522 H       1  UNL1        0.1536
     27 C         142.5354  138.9263  164.1055 C.ar    1  UNL1        0.0517
     28 C         142.5263  140.4071  163.8663 C.ar    1  UNL1        0.0157
     29 C         142.6483  141.3544  165.0230 C.ar    1  UNL1        0.0149
     30 C         142.7793  140.8209  166.4188 C.ar    1  UNL1        0.0851
     31 CL        142.9012  141.7682  167.5754 Cl      1  UNL1       -0.0799
     32 C         142.7884  139.3401  166.6580 C.ar    1  UNL1        0.1518
     33 F         142.9194  138.8066  168.0537 F       1  UNL1       -0.2032
     34 C         142.6664  138.3928  165.5013 C.ar    1  UNL1        0.0451
@<TRIPOS>BOND
     1    19    20    1
     2    20    21    1
     3    20    22    1
     4    20     1    1
     5     1     2    2
     6     1     3   am
     7     3     4    1
     8     4     5    1
     9     5     6    1
    10     6     7   ar
    11     7     8   ar
    12     8     9   ar
    13     9    12    1
    14    12    13   ar
    15    13    14   ar
    16    14    15   ar
    17    15    16    1
    18    15    17   ar
    19    17    18   ar
    20     9    10   ar
    21    10    25    1
    22    25    27    1
    23    27    28   ar
    24    28    29   ar
    25    29    30   ar
    26    30    31    1
    27    30    32   ar
    28    32    33    1
    29    32    34   ar
    30     7    11    1
    31    11     3    1
    32    10     6   ar
    33    34    27   ar
    34    18    12   ar
    35    22    23    1
    36    22    24    1
    37    25    26    1
@<TRIPOS>MOLECULE
*****
 34 37 0 0 0
SMALL
GASTEIGER

@<TRIPOS>ATOM
      1 C         142.1097  140.5600  169.9608 C.2     1  UNL1        0.2383
      2 O         143.3398  139.8258  170.4053 O.2     1  UNL1       -0.2735
      3 N         141.6883  140.5152  168.5219 N.am    1  UNL1       -0.2695
      4 C         140.4582  141.2494  168.0774 C.3     1  UNL1        0.1184
      5 C         140.0369  141.2046  166.6385 C.3     1  UNL1        0.1299
      6 N         140.8457  140.4256  165.6441 N.ar    1  UNL1       -0.3005
      7 C         142.0758  139.6914  166.0886 C.ar    1  UNL1        0.1416
      8 N         142.6688  139.0121  164.8898 N.ar    1  UNL1       -0.2279
      9 C         141.8051  139.3266  163.7044 C.ar    1  UNL1        0.1125
     10 C         140.6784  140.2002  164.1706 C.ar    1  UNL1        0.1318
     11 C         142.4972  139.7362  167.5275 C.3     1  UNL1        0.1578
     12 C         142.0288  138.8509  162.2995 C.ar    1  UNL1        0.0205
     13 C         140.9663  139.0549  161.2605 C.ar    1  UNL1        0.0039
     14 C         141.1900  138.5793  159.8556 C.ar    1  UNL1        0.0297
     15 C         142.4761  137.8998  159.4897 C.ar    1  UNL1        0.1401
     16 F         142.6998  137.4241  158.0848 F       1  UNL1       -0.2042
     17 C         143.5386  137.6958  160.5287 C.ar    1  UNL1        0.0297
     18 C         143.3150  138.1714  161.9336 C.ar    1  UNL1        0.0039
     19 C         140.3769  140.1690  171.1203 C.3     1  UNL1        0.0249
     20 C         141.3009  141.3390  170.9553 C.3     1  UNL1        0.1089
     21 C         142.2248  142.5090  170.7902 C.3     1  UNL1        0.0249
     22 N         140.4920  142.1180  171.9497 N.3     1  UNL1       -0.3164
     23 H         140.9010  143.0447  172.0693 H       1  UNL1        0.1192
     24 H         140.4907  141.6288  172.8448 H       1  UNL1        0.1192
     25 N         139.5775  140.7515  163.3138 N.pl3   1  UNL1       -0.2980
     26 H         138.8478  140.1638  163.0115 H       1  UNL1        0.1536
     27 C         139.5885  142.1981  162.9175 C.ar    1  UNL1        0.0517
     28 C         138.4426  143.0885  163.2971 C.ar    1  UNL1        0.0157
     29 C         138.4537  144.5352  162.9007 C.ar    1  UNL1        0.0149
     30 C         139.6106  145.0915  162.1247 C.ar    1  UNL1        0.0851
     31 CL        139.6216  146.5381  161.7284 Cl      1  UNL1       -0.0799
     32 C         140.7565  144.2010  161.7451 C.ar    1  UNL1        0.1518
     33 F         141.9134  144.7573  160.9692 F       1  UNL1       -0.2032
     34 C         140.7454  142.7544  162.1415 C.ar    1  UNL1        0.0451
@<TRIPOS>BOND
     1    19    20    1
     2    20    21    1
     3    20    22    1
     4    20     1    1
     5     1     2    2
     6     1     3   am
     7     3     4    1
     8     4     5    1
     9     5     6    1
    10     6     7   ar
    11     7     8   ar
    12     8     9   ar
    13     9    12    1
    14    12    13   ar
    15    13    14   ar
    16    14    15   ar
    17    15    16    1
    18    15    17   ar
    19    17    18   ar
    20     9    10   ar
    21    10    25    1
    22    25    27    1
    23    27    28   ar
    24    28    29   ar
    25    29    30   ar
    26    30    31    1
    27    30    32   ar
    28    32    33    1
    29    32    34   ar
    30     7    11    1
    31    11     3    1
    32    10     6   ar
    33    34    27   ar
    34    18    12   ar
    35    22    23    1
    36    22    24    1
    37    25    26    1
@<TRIPOS>MOLECULE
*****
 34 37 0 0 0
SMALL
GASTEIGER

@<TRIPOS>ATOM
      1 C         145.3790  141.1503  156.3873 C.2     1  UNL1        0.2383
      2 O         145.6763  139.8188  155.7639 O.2     1  UNL1       -0.2735
      3 N         144.5402  141.2268  157.6285 N.am    1  UNL1       -0.2695
      4 C         144.2429  142.5583  158.2519 C.3     1  UNL1        0.1184
      5 C         143.4040  142.6348  159.4931 C.3     1  UNL1        0.1299
      6 N         142.8624  141.3798  160.1108 N.ar    1  UNL1       -0.3005
      7 C         143.1597  140.0483  159.4873 C.ar    1  UNL1        0.1416
      8 N         142.4935  138.9897  160.3154 N.ar    1  UNL1       -0.2279
      9 C         141.7845  139.6669  161.4505 C.ar    1  UNL1        0.1125
     10 C         142.0126  141.1441  161.3241 C.ar    1  UNL1        0.1318
     11 C         143.9985  139.9718  158.2462 C.3     1  UNL1        0.1578
     12 C         140.9875  138.9865  162.5238 C.ar    1  UNL1        0.0205
     13 C         141.6818  138.1498  163.5572 C.ar    1  UNL1        0.0039
     14 C         140.8848  137.4694  164.6304 C.ar    1  UNL1        0.0297
     15 C         139.3935  137.6257  164.6702 C.ar    1  UNL1        0.1401
     16 F         138.5965  136.9453  165.7435 F       1  UNL1       -0.2042
     17 C         138.6992  138.4624  163.6368 C.ar    1  UNL1        0.0297
     18 C         139.4962  139.1428  162.5636 C.ar    1  UNL1        0.0039
     19 C         144.6838  142.5256  154.9296 C.3     1  UNL1        0.0249
     20 C         145.9206  142.4053  155.7696 C.3     1  UNL1        0.1089
     21 C         147.1575  142.2850  156.6097 C.3     1  UNL1        0.0249
     22 N         146.4622  143.6604  155.1519 N.3     1  UNL1       -0.3164
     23 H         147.3780  143.8677  155.5504 H       1  UNL1        0.1192
     24 H         145.8258  144.4346  155.3412 H       1  UNL1        0.1192
     25 N         141.4836  142.2002  162.2486 N.pl3   1  UNL1       -0.2980
     26 H         140.8254  142.8556  161.9221 H       1  UNL1        0.1536
     27 C         141.9573  142.2579  163.6707 C.ar    1  UNL1        0.0517
     28 C         141.1207  141.6634  164.7646 C.ar    1  UNL1        0.0157
     29 C         141.5945  141.7211  166.1867 C.ar    1  UNL1        0.0149
     30 C         142.9049  142.3733  166.5148 C.ar    1  UNL1        0.0851
     31 CL        143.3786  142.4309  167.9369 Cl      1  UNL1       -0.0799
     32 C         143.7414  142.9677  165.4209 C.ar    1  UNL1        0.1518
     33 F         145.0518  143.6199  165.7490 F       1  UNL1       -0.2032
     34 C         143.2676  142.9100  163.9989 C.ar    1  UNL1        0.0451
@<TRIPOS>BOND
     1    19    20    1
     2    20    21    1
     3    20    22    1
     4    20     1    1
     5     1     2    2
     6     1     3   am
     7     3     4    1
     8     4     5    1
     9     5     6    1
    10     6     7   ar
    11     7     8   ar
    12     8     9   ar
    13     9    12    1
    14    12    13   ar
    15    13    14   ar
    16    14    15   ar
    17    15    16    1
    18    15    17   ar
    19    17    18   ar
    20     9    10   ar
    21    10    25    1
    22    25    27    1
    23    27    28   ar
    24    28    29   ar
    25    29    30   ar
    26    30    31    1
    27    30    32   ar
    28    32    33    1
    29    32    34   ar
    30     7    11    1
    31    11     3    1
    32    10     6   ar
    33    34    27   ar
    34    18    12   ar
    35    22    23    1
    36    22    24    1
    37    25    26    1
@<TRIPOS>MOLECULE
*****
 34 37 0 0 0
SMALL
GASTEIGER

@<TRIPOS>ATOM
      1 C         140.1401  140.8602  169.6163 C.2     1  UNL1        0.2383
      2 O         139.0031  139.9701  170.0224 O.2     1  UNL1       -0.2735
      3 N         140.4441  141.0729  168.1629 N.am    1  UNL1       -0.2695
      4 C         141.5811  141.9630  167.7568 C.3     1  UNL1        0.1184
      5 C         141.8850  142.1756  166.3034 C.3     1  UNL1        0.1299
      6 N         141.0520  141.4981  165.2561 N.ar    1  UNL1       -0.3005
      7 C         139.9150  140.6080  165.6621 C.ar    1  UNL1        0.1416
      8 N         139.2731  140.0776  164.4144 N.ar    1  UNL1       -0.2279
      9 C         140.0134  140.6399  163.2373 C.ar    1  UNL1        0.1125
     10 C         141.1128  141.5179  163.7575 C.ar    1  UNL1        0.1318
     11 C         139.6110  140.3954  167.1155 C.3     1  UNL1        0.1578
     12 C         139.7079  140.3715  161.7934 C.ar    1  UNL1        0.0205
     13 C         140.5145  139.3624  161.0312 C.ar    1  UNL1        0.0039
     14 C         140.2091  139.0940  159.5874 C.ar    1  UNL1        0.0297
     15 C         139.0971  139.8347  158.9058 C.ar    1  UNL1        0.1401
     16 F         138.7916  139.5663  157.4619 F       1  UNL1       -0.2042
     17 C         138.2904  140.8438  159.6680 C.ar    1  UNL1        0.0297
     18 C         138.5958  141.1123  161.1118 C.ar    1  UNL1        0.0039
     19 C         141.9214  140.3756  170.6612 C.3     1  UNL1        0.0249
     20 C         140.9731  141.5377  170.6637 C.3     1  UNL1        0.1089
     21 C         140.0248  142.6999  170.6662 C.3     1  UNL1        0.0249
     22 N         141.8062  142.2152  171.7111 N.3     1  UNL1       -0.3164
     23 H         141.3871  143.1139  171.9501 H       1  UNL1        0.1192
     24 H         142.7490  142.3646  171.3515 H       1  UNL1        0.1192
     25 N         142.0998  142.2815  162.9251 N.pl3   1  UNL1       -0.2980
     26 H         143.0644  142.1936  163.1013 H       1  UNL1        0.1536
     27 C         141.6171  143.1790  161.8245 C.ar    1  UNL1        0.0517
     28 C         141.9005  142.8300  160.3935 C.ar    1  UNL1        0.0157
     29 C         141.4178  143.7276  159.2928 C.ar    1  UNL1        0.0149
     30 C         140.6516  144.9742  159.6232 C.ar    1  UNL1        0.0851
     31 CL        140.1690  145.8717  158.5226 Cl      1  UNL1       -0.0799
     32 C         140.3682  145.3231  161.0542 C.ar    1  UNL1        0.1518
     33 F         139.6020  146.5696  161.3847 F       1  UNL1       -0.2032
     34 C         140.8509  144.4255  162.1548 C.ar    1  UNL1        0.0451
@<TRIPOS>BOND
     1    19    20    1
     2    20    21    1
     3    20    22    1
     4    20     1    1
     5     1     2    2
     6     1     3   am
     7     3     4    1
     8     4     5    1
     9     5     6    1
    10     6     7   ar
    11     7     8   ar
    12     8     9   ar
    13     9    12    1
    14    12    13   ar
    15    13    14   ar
    16    14    15   ar
    17    15    16    1
    18    15    17   ar
    19    17    18   ar
    20     9    10   ar
    21    10    25    1
    22    25    27    1
    23    27    28   ar
    24    28    29   ar
    25    29    30   ar
    26    30    31    1
    27    30    32   ar
    28    32    33    1
    29    32    34   ar
    30     7    11    1
    31    11     3    1
    32    10     6   ar
    33    34    27   ar
    34    18    12   ar
    35    22    23    1
    36    22    24    1
    37    25    26    1
@<TRIPOS>MOLECULE
*****
 34 37 0 0 0
SMALL
GASTEIGER

@<TRIPOS>ATOM
      1 C         142.9735  139.8444  156.1472 C.2     1  UNL1        0.2383
      2 O         142.3470  140.7209  155.1035 O.2     1  UNL1       -0.2735
      3 N         142.6587  140.0628  157.5974 N.am    1  UNL1       -0.2695
      4 C         143.2852  139.1864  158.6411 C.3     1  UNL1        0.1184
      5 C         142.9704  139.4048  160.0913 C.3     1  UNL1        0.1299
      6 N         142.0292  140.4996  160.4979 N.ar    1  UNL1       -0.3005
      7 C         141.4027  141.3761  159.4542 C.ar    1  UNL1        0.1416
      8 N         140.5195  142.3681  160.1513 N.ar    1  UNL1       -0.2279
      9 C         140.6001  142.1047  161.6257 C.ar    1  UNL1        0.1125
     10 C         141.5331  140.9499  161.8400 C.ar    1  UNL1        0.1318
     11 C         141.7175  141.1577  158.0040 C.3     1  UNL1        0.1578
     12 C         139.8749  142.8630  162.6978 C.ar    1  UNL1        0.0205
     13 C         138.4615  142.5017  163.0466 C.ar    1  UNL1        0.0039
     14 C         137.7363  143.2599  164.1187 C.ar    1  UNL1        0.0297
     15 C         138.4246  144.3793  164.8419 C.ar    1  UNL1        0.1401
     16 F         137.6994  145.1376  165.9139 F       1  UNL1       -0.2042
     17 C         139.8380  144.7406  164.4930 C.ar    1  UNL1        0.0297
     18 C         140.5632  143.9824  163.4210 C.ar    1  UNL1        0.0039
     19 C         145.0455  139.7344  155.7062 C.3     1  UNL1        0.0249
     20 C         143.9147  138.7496  155.7406 C.3     1  UNL1        0.1089
     21 C         142.7838  137.7647  155.7750 C.3     1  UNL1        0.0249
     22 N         144.8560  137.6547  155.3340 N.3     1  UNL1       -0.3164
     23 H         144.3443  136.7750  155.2639 H       1  UNL1        0.1192
     24 H         145.5940  137.5640  156.0322 H       1  UNL1        0.1192
     25 N         141.9049  140.3507  163.1638 N.pl3   1  UNL1       -0.2980
     26 H         142.8513  140.2892  163.4280 H       1  UNL1        0.1536
     27 C         140.8347  139.8450  164.0853 C.ar    1  UNL1        0.0517
     28 C         139.9641  138.6979  163.6657 C.ar    1  UNL1        0.0157
     29 C         138.8939  138.1923  164.5872 C.ar    1  UNL1        0.0149
     30 C         138.6944  138.8339  165.9284 C.ar    1  UNL1        0.0851
     31 CL        137.6243  138.3283  166.8498 Cl      1  UNL1       -0.0799
     32 C         139.5650  139.9810  166.3480 C.ar    1  UNL1        0.1518
     33 F         139.3655  140.6226  167.6891 F       1  UNL1       -0.2032
     34 C         140.6352  140.4866  165.4264 C.ar    1  UNL1        0.0451
@<TRIPOS>BOND
     1    19    20    1
     2    20    21    1
     3    20    22    1
     4    20     1    1
     5     1     2    2
     6     1     3   am
     7     3     4    1
     8     4     5    1
     9     5     6    1
    10     6     7   ar
    11     7     8   ar
    12     8     9   ar
    13     9    12    1
    14    12    13   ar
    15    13    14   ar
    16    14    15   ar
    17    15    16    1
    18    15    17   ar
    19    17    18   ar
    20     9    10   ar
    21    10    25    1
    22    25    27    1
    23    27    28   ar
    24    28    29   ar
    25    29    30   ar
    26    30    31    1
    27    30    32   ar
    28    32    33    1
    29    32    34   ar
    30     7    11    1
    31    11     3    1
    32    10     6   ar
    33    34    27   ar
    34    18    12   ar
    35    22    23    1
    36    22    24    1
    37    25    26    1
@<TRIPOS>MOLECULE
*****
 34 37 0 0 0
SMALL
GASTEIGER

@<TRIPOS>ATOM
      1 C         140.6841  142.0775  169.8536 C.2     1  UNL1        0.2383
      2 O         139.3756  142.6752  170.2783 O.2     1  UNL1       -0.2735
      3 N         141.1230  142.1729  168.4225 N.am    1  UNL1       -0.2695
      4 C         142.4315  141.5752  167.9978 C.3     1  UNL1        0.1184
      5 C         142.8704  141.6706  166.5666 C.3     1  UNL1        0.1299
      6 N         142.0006  142.3637  165.5601 N.ar    1  UNL1       -0.3005
      7 C         140.6921  142.9614  165.9847 C.ar    1  UNL1        0.1416
      8 N         140.0510  143.5791  164.7774 N.ar    1  UNL1       -0.2279
      9 C         140.9635  143.3631  163.6066 C.ar    1  UNL1        0.1125
     10 C         142.1684  142.6120  164.0903 C.ar    1  UNL1        0.1318
     11 C         140.2532  142.8660  167.4159 C.3     1  UNL1        0.1578
     12 C         140.7147  143.8184  162.1991 C.ar    1  UNL1        0.0205
     13 C         140.6492  145.2837  161.8853 C.ar    1  UNL1        0.0039
     14 C         140.4004  145.7390  160.4780 C.ar    1  UNL1        0.0297
     15 C         140.2172  144.7289  159.3843 C.ar    1  UNL1        0.1401
     16 F         139.9684  145.1842  157.9768 F       1  UNL1       -0.2042
     17 C         140.2827  143.2636  159.6981 C.ar    1  UNL1        0.0297
     18 C         140.5314  142.8083  161.1055 C.ar    1  UNL1        0.0039
     19 C         142.3894  142.6232  170.9913 C.3     1  UNL1        0.0249
     20 C         141.5539  141.3844  170.8602 C.3     1  UNL1        0.1089
     21 C         140.7183  140.1456  170.7291 C.3     1  UNL1        0.0249
     22 N         142.4237  140.6913  171.8668 N.3     1  UNL1       -0.3164
     23 H         142.0851  139.7400  172.0109 H       1  UNL1        0.1192
     24 H         142.3934  141.2004  172.7501 H       1  UNL1        0.1192
     25 N         143.3360  142.1842  163.2515 N.pl3   1  UNL1       -0.2980
     26 H         144.1510  142.7358  163.2245 H       1  UNL1        0.1536
     27 C         143.2620  140.9160  162.4539 C.ar    1  UNL1        0.0517
     28 C         143.8755  140.8530  161.0866 C.ar    1  UNL1        0.0157
     29 C         143.8014  139.5847  160.2890 C.ar    1  UNL1        0.0149
     30 C         143.1138  138.3795  160.8588 C.ar    1  UNL1        0.0851
     31 CL        143.0398  137.1113  160.0612 Cl      1  UNL1       -0.0799
     32 C         142.5004  138.4425  162.2262 C.ar    1  UNL1        0.1518
     33 F         141.8128  137.2372  162.7960 F       1  UNL1       -0.2032
     34 C         142.5745  139.7107  163.0237 C.ar    1  UNL1        0.0451
@<TRIPOS>BOND
     1    19    20    1
     2    20    21    1
     3    20    22    1
     4    20     1    1
     5     1     2    2
     6     1     3   am
     7     3     4    1
     8     4     5    1
     9     5     6    1
    10     6     7   ar
    11     7     8   ar
    12     8     9   ar
    13     9    12    1
    14    12    13   ar
    15    13    14   ar
    16    14    15   ar
    17    15    16    1
    18    15    17   ar
    19    17    18   ar
    20     9    10   ar
    21    10    25    1
    22    25    27    1
    23    27    28   ar
    24    28    29   ar
    25    29    30   ar
    26    30    31    1
    27    30    32   ar
    28    32    33    1
    29    32    34   ar
    30     7    11    1
    31    11     3    1
    32    10     6   ar
    33    34    27   ar
    34    18    12   ar
    35    22    23    1
    36    22    24    1
    37    25    26    1
@<TRIPOS>MOLECULE
*****
 34 37 0 0 0
SMALL
GASTEIGER

@<TRIPOS>ATOM
      1 C         141.9523  138.2488  156.8399 C.2     1  UNL1        0.2383
      2 O         140.6597  138.1658  156.0835 O.2     1  UNL1       -0.2735
      3 N         142.0269  139.0385  158.1130 N.am    1  UNL1       -0.2695
      4 C         143.3196  139.1216  158.8693 C.3     1  UNL1        0.1184
      5 C         143.3942  139.9113  160.1424 C.3     1  UNL1        0.1299
      6 N         142.1762  140.6180  160.6592 N.ar    1  UNL1       -0.3005
      7 C         140.8836  140.5349  159.9028 C.ar    1  UNL1        0.1416
      8 N         139.8562  141.3309  160.6519 N.ar    1  UNL1       -0.2279
      9 C         140.5140  141.9059  161.8712 C.ar    1  UNL1        0.1125
     10 C         141.9478  141.4653  161.8757 C.ar    1  UNL1        0.1318
     11 C         140.8089  139.7452  158.6297 C.3     1  UNL1        0.1578
     12 C         139.8538  142.7698  162.9046 C.ar    1  UNL1        0.0205
     13 C         140.4454  144.1025  163.2570 C.ar    1  UNL1        0.0039
     14 C         139.7853  144.9664  164.2903 C.ar    1  UNL1        0.0297
     15 C         138.5337  144.4977  164.9713 C.ar    1  UNL1        0.1401
     16 F         137.8735  145.3617  166.0047 F       1  UNL1       -0.2042
     17 C         137.9421  143.1651  164.6189 C.ar    1  UNL1        0.0297
     18 C         138.6022  142.3012  163.5855 C.ar    1  UNL1        0.0039
     19 C         143.5631  138.7746  155.5636 C.3     1  UNL1        0.0249
     20 C         143.1703  137.5422  156.3231 C.3     1  UNL1        0.1089
     21 C         142.7775  136.3098  157.0826 C.3     1  UNL1        0.0249
     22 N         144.3884  136.8355  155.8063 N.3     1  UNL1       -0.3164
     23 H         144.4127  135.8852  156.1761 H       1  UNL1        0.1192
     24 H         145.2248  137.3377  156.1041 H       1  UNL1        0.1192
     25 N         142.9732  141.8112  162.9143 N.pl3   1  UNL1       -0.2980
     26 H         143.7322  142.3935  162.6819 H       1  UNL1        0.1536
     27 C         142.8422  141.2700  164.3071 C.ar    1  UNL1        0.0517
     28 C         142.5079  139.8236  164.5214 C.ar    1  UNL1        0.0157
     29 C         142.3769  139.2824  165.9143 C.ar    1  UNL1        0.0149
     30 C         142.5803  140.1877  167.0929 C.ar    1  UNL1        0.0851
     31 CL        142.4493  139.6465  168.4856 Cl      1  UNL1       -0.0799
     32 C         142.9146  141.6342  166.8786 C.ar    1  UNL1        0.1518
     33 F         143.1179  142.5396  168.0571 F       1  UNL1       -0.2032
     34 C         143.0456  142.1753  165.4857 C.ar    1  UNL1        0.0451
@<TRIPOS>BOND
     1    19    20    1
     2    20    21    1
     3    20    22    1
     4    20     1    1
     5     1     2    2
     6     1     3   am
     7     3     4    1
     8     4     5    1
     9     5     6    1
    10     6     7   ar
    11     7     8   ar
    12     8     9   ar
    13     9    12    1
    14    12    13   ar
    15    13    14   ar
    16    14    15   ar
    17    15    16    1
    18    15    17   ar
    19    17    18   ar
    20     9    10   ar
    21    10    25    1
    22    25    27    1
    23    27    28   ar
    24    28    29   ar
    25    29    30   ar
    26    30    31    1
    27    30    32   ar
    28    32    33    1
    29    32    34   ar
    30     7    11    1
    31    11     3    1
    32    10     6   ar
    33    34    27   ar
    34    18    12   ar
    35    22    23    1
    36    22    24    1
    37    25    26    1
@<TRIPOS>MOLECULE
*****
 34 37 0 0 0
SMALL
GASTEIGER

@<TRIPOS>ATOM
      1 C         142.2652  142.2933  169.5120 C.2     1  UNL1        0.2383
      2 O         143.6023  142.9522  169.6791 O.2     1  UNL1       -0.2735
      3 N         141.8806  141.7023  168.1881 N.am    1  UNL1       -0.2695
      4 C         140.5435  141.0433  168.0210 C.3     1  UNL1        0.1184
      5 C         140.1589  140.4524  166.6970 C.3     1  UNL1        0.1299
      6 N         141.1112  140.5204  165.5402 N.ar    1  UNL1       -0.3005
      7 C         142.4483  141.1794  165.7073 C.ar    1  UNL1        0.1416
      8 N         143.1733  141.0959  164.3968 N.ar    1  UNL1       -0.2279
      9 C         142.2842  140.3854  163.4197 C.ar    1  UNL1        0.1125
     10 C         141.0098  140.0297  164.1264 C.ar    1  UNL1        0.1318
     11 C         142.8330  141.7704  167.0313 C.3     1  UNL1        0.1578
     12 C         142.6120  140.0834  161.9874 C.ar    1  UNL1        0.0205
     13 C         142.3944  141.1271  160.9322 C.ar    1  UNL1        0.0039
     14 C         142.7222  140.8252  159.4999 C.ar    1  UNL1        0.0297
     15 C         143.2675  139.4797  159.1229 C.ar    1  UNL1        0.1401
     16 F         143.5953  139.1778  157.6905 F       1  UNL1       -0.2042
     17 C         143.4851  138.4361  160.1781 C.ar    1  UNL1        0.0297
     18 C         143.1573  138.7379  161.6103 C.ar    1  UNL1        0.0039
     19 C         141.9883  140.9759  171.1515 C.3     1  UNL1        0.0249
     20 C         141.3129  142.2252  170.6689 C.3     1  UNL1        0.1089
     21 C         140.6374  143.4745  170.1862 C.3     1  UNL1        0.0249
     22 N         140.3605  142.1571  171.8258 N.3     1  UNL1       -0.3164
     23 H         139.7115  142.9427  171.7786 H       1  UNL1        0.1192
     24 H         140.8839  142.2006  172.7001 H       1  UNL1        0.1192
     25 N         139.8395  139.3096  163.5249 N.pl3   1  UNL1       -0.2980
     26 H         139.3487  138.6399  164.0540 H       1  UNL1        0.1536
     27 C         139.4168  139.6099  162.1174 C.ar    1  UNL1        0.0517
     28 C         138.7427  140.9113  161.7981 C.ar    1  UNL1        0.0157
     29 C         138.3201  141.2115  160.3905 C.ar    1  UNL1        0.0149
     30 C         138.5715  140.2103  159.3022 C.ar    1  UNL1        0.0851
     31 CL        138.1489  140.5106  157.8947 Cl      1  UNL1       -0.0799
     32 C         139.2457  138.9089  159.6215 C.ar    1  UNL1        0.1518
     33 F         139.4971  137.9078  158.5332 F       1  UNL1       -0.2032
     34 C         139.6683  138.6088  161.0290 C.ar    1  UNL1        0.0451
@<TRIPOS>BOND
     1    19    20    1
     2    20    21    1
     3    20    22    1
     4    20     1    1
     5     1     2    2
     6     1     3   am
     7     3     4    1
     8     4     5    1
     9     5     6    1
    10     6     7   ar
    11     7     8   ar
    12     8     9   ar
    13     9    12    1
    14    12    13   ar
    15    13    14   ar
    16    14    15   ar
    17    15    16    1
    18    15    17   ar
    19    17    18   ar
    20     9    10   ar
    21    10    25    1
    22    25    27    1
    23    27    28   ar
    24    28    29   ar
    25    29    30   ar
    26    30    31    1
    27    30    32   ar
    28    32    33    1
    29    32    34   ar
    30     7    11    1
    31    11     3    1
    32    10     6   ar
    33    34    27   ar
    34    18    12   ar
    35    22    23    1
    36    22    24    1
    37    25    26    1
@<TRIPOS>MOLECULE
*****
 34 37 0 0 0
SMALL
GASTEIGER

@<TRIPOS>ATOM
      1 C         140.4198  141.7016  169.3499 C.2     1  UNL1        0.2383
      2 O         140.0980  143.1365  169.6453 O.2     1  UNL1       -0.2735
      3 N         140.9252  141.3102  167.9929 N.am    1  UNL1       -0.2695
      4 C         141.2469  139.8753  167.6975 C.3     1  UNL1        0.1184
      5 C         141.7523  139.4840  166.3405 C.3     1  UNL1        0.1299
      6 N         141.9359  140.5276  165.2789 N.ar    1  UNL1       -0.3005
      7 C         141.6142  141.9625  165.5743 C.ar    1  UNL1        0.1416
      8 N         141.8931  142.7643  164.3375 N.ar    1  UNL1       -0.2279
      9 C         142.3872  141.8247  163.2778 C.ar    1  UNL1        0.1125
     10 C         142.4137  140.4424  163.8596 C.ar    1  UNL1        0.1318
     11 C         141.1088  142.3539  166.9313 C.3     1  UNL1        0.1578
     12 C         142.7850  142.2013  161.8813 C.ar    1  UNL1        0.0205
     13 C         144.2350  142.2398  161.4992 C.ar    1  UNL1        0.0039
     14 C         144.6328  142.6164  160.1028 C.ar    1  UNL1        0.0297
     15 C         143.5807  142.9545  159.0886 C.ar    1  UNL1        0.1401
     16 F         143.9785  143.3311  157.6922 F       1  UNL1       -0.2042
     17 C         142.1307  142.9160  159.4708 C.ar    1  UNL1        0.0297
     18 C         141.7329  142.5394  160.8671 C.ar    1  UNL1        0.0039
     19 C         138.8609  140.3673  169.8879 C.3     1  UNL1        0.0249
     20 C         140.2361  140.6579  170.4115 C.3     1  UNL1        0.1089
     21 C         141.6114  140.9486  170.9351 C.3     1  UNL1        0.0249
     22 N         140.0524  139.6142  171.4732 N.3     1  UNL1       -0.3164
     23 H         140.8925  139.5640  172.0495 H       1  UNL1        0.1192
     24 H         139.8865  138.7085  171.0344 H       1  UNL1        0.1192
     25 N         142.8426  139.1940  163.1472 N.pl3   1  UNL1       -0.2980
     26 H         143.4215  138.5412  163.6032 H       1  UNL1        0.1536
     27 C         142.3895  138.9402  161.7400 C.ar    1  UNL1        0.0517
     28 C         143.4010  138.7164  160.6552 C.ar    1  UNL1        0.0157
     29 C         142.9479  138.4625  159.2479 C.ar    1  UNL1        0.0149
     30 C         141.4833  138.4325  158.9255 C.ar    1  UNL1        0.0851
     31 CL        141.0302  138.1787  157.5183 Cl      1  UNL1       -0.0799
     32 C         140.4718  138.6563  160.0102 C.ar    1  UNL1        0.1518
     33 F         139.0071  138.6263  159.6878 F       1  UNL1       -0.2032
     34 C         140.9249  138.9102  161.4174 C.ar    1  UNL1        0.0451
@<TRIPOS>BOND
     1    19    20    1
     2    20    21    1
     3    20    22    1
     4    20     1    1
     5     1     2    2
     6     1     3   am
     7     3     4    1
     8     4     5    1
     9     5     6    1
    10     6     7   ar
    11     7     8   ar
    12     8     9   ar
    13     9    12    1
    14    12    13   ar
    15    13    14   ar
    16    14    15   ar
    17    15    16    1
    18    15    17   ar
    19    17    18   ar
    20     9    10   ar
    21    10    25    1
    22    25    27    1
    23    27    28   ar
    24    28    29   ar
    25    29    30   ar
    26    30    31    1
    27    30    32   ar
    28    32    33    1
    29    32    34   ar
    30     7    11    1
    31    11     3    1
    32    10     6   ar
    33    34    27   ar
    34    18    12   ar
    35    22    23    1
    36    22    24    1
    37    25    26    1
