@<TRIPOS>MOLECULE
*****
 38 41 0 0 0
SMALL
GASTEIGER

@<TRIPOS>ATOM
      1 C         140.2691  139.7398  158.5727 C.3     1  UNL1        0.1693
      2 C         140.2967  138.7435  159.6937 C.3     1  UNL1        0.0650
      3 C         139.5160  139.0038  160.9479 C.3     1  UNL1        0.0971
      4 N         138.7077  140.2603  161.0810 N.am    1  UNL1       -0.2790
      5 C         137.9271  140.5206  162.3351 C.2     1  UNL1        0.2301
      6 O         137.1188  141.7772  162.4683 O.2     1  UNL1       -0.2745
      7 C         138.6801  141.2566  159.9600 C.3     1  UNL1        0.0971
      8 C         139.4608  140.9964  158.7059 C.3     1  UNL1        0.0650
      9 O         141.0497  139.4796  157.3186 O.3     1  UNL1       -0.4789
     10 C         142.0626  135.2581  156.1340 C.ar    1  UNL1        0.0195
     11 C         142.9610  136.0104  157.0704 C.ar    1  UNL1        0.0047
     12 C         142.6234  137.4175  157.4652 C.ar    1  UNL1        0.0371
     13 C         141.3873  138.0724  156.9237 C.ar    1  UNL1        0.1427
     14 C         140.4889  137.3201  155.9873 C.ar    1  UNL1        0.0871
     15 C         140.8265  135.9130  155.5925 C.ar    1  UNL1        0.0091
     16 C         143.4005  131.0304  153.2674 C.3     1  UNL1        0.1321
     17 N         143.0151  131.9077  154.4215 N.ar    1  UNL1       -0.3059
     18 C         142.8242  131.4634  155.8414 C.ar    1  UNL1        0.1786
     19 N         142.4442  132.6644  156.6557 N.ar    1  UNL1       -0.2239
     20 C         142.4002  133.8509  155.7391 C.ar    1  UNL1        0.1002
     21 C         142.7531  133.3832  154.3582 C.ar    1  UNL1        0.0965
     22 C         139.2528  137.9750  155.4458 C.2     1  UNL1        0.2457
     23 N         139.3250  139.3631  154.8821 N.am    1  UNL1       -0.3252
     24 O         137.9444  137.2417  155.4680 O.2     1  UNL1       -0.2703
     25 H         140.1837  139.8444  154.8676 H       1  UNL1        0.1453
     26 H         138.5137  139.7929  154.5267 H       1  UNL1        0.1453
     27 C         137.9547  139.5243  163.4561 C.3     1  UNL1        0.1116
     28 C         138.5660  139.8956  164.7746 C.ar    1  UNL1       -0.0129
     29 C         138.2420  139.0977  166.0028 C.ar    1  UNL1       -0.0007
     30 C         138.8533  139.4689  167.3213 C.ar    1  UNL1        0.0369
     31 C         139.7886  140.6381  167.4116 C.ar    1  UNL1        0.1468
     32 C         140.1127  141.4359  166.1834 C.ar    1  UNL1        0.0369
     33 C         139.5014  141.0647  164.8650 C.ar    1  UNL1       -0.0007
     34 O         140.4000  141.0094  168.7301 O.3     1  UNL1       -0.4045
     35 C         139.9961  140.2788  169.9764 C.3     1  UNL1        0.5753
     36 F         139.5922  139.5482  171.2226 F       1  UNL1       -0.1328
     37 F         138.8420  141.2204  170.1543 F       1  UNL1       -0.1328
     38 F         141.1501  139.3372  169.7984 F       1  UNL1       -0.1328
@<TRIPOS>BOND
     1    16    17    1
     2    17    18   ar
     3    18    19   ar
     4    19    20   ar
     5    20    10    1
     6    10    11   ar
     7    11    12   ar
     8    12    13   ar
     9    13     9    1
    10     9     1    1
    11     1     2    1
    12     2     3    1
    13     3     4    1
    14     4     5   am
    15     5     6    2
    16     5    27    1
    17    27    28    1
    18    28    29   ar
    19    29    30   ar
    20    30    31   ar
    21    31    34    1
    22    34    35    1
    23    35    36    1
    24    35    37    1
    25    35    38    1
    26    31    32   ar
    27    32    33   ar
    28     4     7    1
    29     7     8    1
    30    13    14   ar
    31    14    22    1
    32    22    23   am
    33    22    24    2
    34    14    15   ar
    35    20    21   ar
    36    21    17   ar
    37    15    10   ar
    38     8     1    1
    39    33    28   ar
    40    23    25    1
    41    23    26    1
@<TRIPOS>MOLECULE
*****
 38 41 0 0 0
SMALL
GASTEIGER

@<TRIPOS>ATOM
      1 C         140.7693  138.0143  161.6497 C.3     1  UNL1        0.1693
      2 C         140.5314  137.4845  163.0327 C.3     1  UNL1        0.0650
      3 C         141.5259  137.7577  164.1220 C.3     1  UNL1        0.0971
      4 N         142.7582  138.5608  163.8282 N.am    1  UNL1       -0.2790
      5 C         143.7527  138.8340  164.9174 C.2     1  UNL1        0.2301
      6 O         144.9851  139.6372  164.6237 O.2     1  UNL1       -0.2745
      7 C         142.9961  139.0907  162.4452 C.3     1  UNL1        0.0971
      8 C         142.0017  138.8175  161.3560 C.3     1  UNL1        0.0650
      9 O         139.7749  137.7411  160.5605 O.3     1  UNL1       -0.4789
     10 C         138.8994  140.8932  157.4706 C.ar    1  UNL1        0.0195
     11 C         139.9534  139.8586  157.2087 C.ar    1  UNL1        0.0047
     12 C         140.2452  138.8079  158.2387 C.ar    1  UNL1        0.0371
     13 C         139.4830  138.7919  159.5305 C.ar    1  UNL1        0.1427
     14 C         138.4291  139.8265  159.7924 C.ar    1  UNL1        0.0871
     15 C         138.1373  140.8772  158.7624 C.ar    1  UNL1        0.0091
     16 C         138.2120  145.5753  155.1281 C.3     1  UNL1        0.1321
     17 N         138.2916  144.0960  155.3639 N.ar    1  UNL1       -0.3059
     18 C         138.0253  143.0256  154.3473 C.ar    1  UNL1        0.1786
     19 N         138.2206  141.6956  155.0128 N.ar    1  UNL1       -0.2239
     20 C         138.6076  141.9440  156.4406 C.ar    1  UNL1        0.1002
     21 C         138.6514  143.4275  156.6576 C.ar    1  UNL1        0.0965
     22 C         137.6669  139.8105  161.0842 C.2     1  UNL1        0.2457
     23 N         137.2267  138.5058  161.6792 N.am    1  UNL1       -0.3252
     24 O         137.3449  141.0991  161.7811 O.2     1  UNL1       -0.2703
     25 H         137.4381  137.6600  161.2218 H       1  UNL1        0.1453
     26 H         136.7265  138.4953  162.5271 H       1  UNL1        0.1453
     27 C         143.5147  138.3042  166.3004 C.3     1  UNL1        0.1116
     28 C         142.9575  139.2045  167.3630 C.ar    1  UNL1       -0.0129
     29 C         142.9494  138.7587  168.7952 C.ar    1  UNL1       -0.0007
     30 C         142.3922  139.6590  169.8577 C.ar    1  UNL1        0.0369
     31 C         141.8431  141.0050  169.4880 C.ar    1  UNL1        0.1468
     32 C         141.8513  141.4508  168.0558 C.ar    1  UNL1        0.0369
     33 C         142.4085  140.5505  166.9933 C.ar    1  UNL1       -0.0007
     34 O         141.2859  141.9053  170.5506 O.3     1  UNL1       -0.4045
     35 C         140.7756  143.2682  170.1870 C.3     1  UNL1        0.5753
     36 F         140.2653  144.6310  169.8234 F       1  UNL1       -0.1328
     37 F         139.3761  142.7307  170.1364 F       1  UNL1       -0.1328
     38 F         142.1751  143.8057  170.2375 F       1  UNL1       -0.1328
@<TRIPOS>BOND
     1    16    17    1
     2    17    18   ar
     3    18    19   ar
     4    19    20   ar
     5    20    10    1
     6    10    11   ar
     7    11    12   ar
     8    12    13   ar
     9    13     9    1
    10     9     1    1
    11     1     2    1
    12     2     3    1
    13     3     4    1
    14     4     5   am
    15     5     6    2
    16     5    27    1
    17    27    28    1
    18    28    29   ar
    19    29    30   ar
    20    30    31   ar
    21    31    34    1
    22    34    35    1
    23    35    36    1
    24    35    37    1
    25    35    38    1
    26    31    32   ar
    27    32    33   ar
    28     4     7    1
    29     7     8    1
    30    13    14   ar
    31    14    22    1
    32    22    23   am
    33    22    24    2
    34    14    15   ar
    35    20    21   ar
    36    21    17   ar
    37    15    10   ar
    38     8     1    1
    39    33    28   ar
    40    23    25    1
    41    23    26    1
@<TRIPOS>MOLECULE
*****
 38 41 0 0 0
SMALL
GASTEIGER

@<TRIPOS>ATOM
      1 C         143.5669  139.2950  162.0010 C.3     1  UNL1        0.1693
      2 C         144.1205  139.0945  160.6214 C.3     1  UNL1        0.0650
      3 C         143.1930  138.8322  159.4719 C.3     1  UNL1        0.0971
      4 N         141.7121  138.7703  159.7022 N.am    1  UNL1       -0.2790
      5 C         140.7848  138.5080  158.5528 C.2     1  UNL1        0.2301
      6 O         139.3038  138.4461  158.7829 O.2     1  UNL1       -0.2745
      7 C         141.1586  138.9708  161.0818 C.3     1  UNL1        0.0971
      8 C         142.0859  139.2331  162.2312 C.3     1  UNL1        0.0650
      9 O         144.4942  139.5573  163.1504 O.3     1  UNL1       -0.4789
     10 C         142.9158  141.4026  166.9390 C.ar    1  UNL1        0.0195
     11 C         142.7790  139.9265  166.7102 C.ar    1  UNL1        0.0047
     12 C         143.3051  139.3114  165.4473 C.ar    1  UNL1        0.0371
     13 C         143.9681  140.1725  164.4133 C.ar    1  UNL1        0.1427
     14 C         144.1049  141.6485  164.6422 C.ar    1  UNL1        0.0871
     15 C         143.5787  142.2636  165.9050 C.ar    1  UNL1        0.0091
     16 C         139.6349  143.0583  170.7305 C.3     1  UNL1        0.1321
     17 N         140.8816  142.7788  169.9447 N.ar    1  UNL1       -0.3059
     18 C         142.2785  143.1499  170.3459 C.ar    1  UNL1        0.1786
     19 N         143.2105  142.6796  169.2688 N.ar    1  UNL1       -0.2239
     20 C         142.3896  142.0177  168.2019 C.ar    1  UNL1        0.1002
     21 C         140.9503  142.0790  168.6196 C.ar    1  UNL1        0.0965
     22 C         144.7678  142.5096  163.6081 C.2     1  UNL1        0.2457
     23 N         146.0082  142.0289  162.9152 N.am    1  UNL1       -0.3252
     24 O         144.1903  143.8512  163.2671 O.2     1  UNL1       -0.2703
     25 H         146.3873  141.1483  163.1390 H       1  UNL1        0.1453
     26 H         146.4433  142.5940  162.2365 H       1  UNL1        0.1453
     27 C         141.3384  138.3075  157.1731 C.3     1  UNL1        0.1116
     28 C         141.7428  136.9362  156.7192 C.ar    1  UNL1       -0.0129
     29 C         142.9012  136.2415  157.3715 C.ar    1  UNL1       -0.0007
     30 C         143.3056  134.8703  156.9177 C.ar    1  UNL1        0.0369
     31 C         142.5516  134.1937  155.8115 C.ar    1  UNL1        0.1468
     32 C         141.3932  134.8883  155.1592 C.ar    1  UNL1        0.0369
     33 C         140.9888  136.2596  155.6130 C.ar    1  UNL1       -0.0007
     34 O         142.9560  132.8223  155.3576 O.3     1  UNL1       -0.4045
     35 C         143.6563  131.8947  156.3057 C.3     1  UNL1        0.5753
     36 F         144.3567  130.9670  157.2538 F       1  UNL1       -0.1328
     37 F         144.9728  132.2495  155.6804 F       1  UNL1       -0.1328
     38 F         142.3399  131.5398  156.9310 F       1  UNL1       -0.1328
@<TRIPOS>BOND
     1    16    17    1
     2    17    18   ar
     3    18    19   ar
     4    19    20   ar
     5    20    10    1
     6    10    11   ar
     7    11    12   ar
     8    12    13   ar
     9    13     9    1
    10     9     1    1
    11     1     2    1
    12     2     3    1
    13     3     4    1
    14     4     5   am
    15     5     6    2
    16     5    27    1
    17    27    28    1
    18    28    29   ar
    19    29    30   ar
    20    30    31   ar
    21    31    34    1
    22    34    35    1
    23    35    36    1
    24    35    37    1
    25    35    38    1
    26    31    32   ar
    27    32    33   ar
    28     4     7    1
    29     7     8    1
    30    13    14   ar
    31    14    22    1
    32    22    23   am
    33    22    24    2
    34    14    15   ar
    35    20    21   ar
    36    21    17   ar
    37    15    10   ar
    38     8     1    1
    39    33    28   ar
    40    23    25    1
    41    23    26    1
@<TRIPOS>MOLECULE
*****
 38 41 0 0 0
SMALL
GASTEIGER

@<TRIPOS>ATOM
      1 C         142.6809  139.3417  158.4067 C.3     1  UNL1        0.1693
      2 C         142.5367  138.3822  159.5506 C.3     1  UNL1        0.0650
      3 C         143.1888  138.6821  160.8678 C.3     1  UNL1        0.0971
      4 N         143.9850  139.9415  161.0410 N.am    1  UNL1       -0.2790
      5 C         144.6370  140.2413  162.3582 C.2     1  UNL1        0.2301
      6 O         145.4333  141.5007  162.5314 O.2     1  UNL1       -0.2745
      7 C         144.1292  140.9010  159.8971 C.3     1  UNL1        0.0971
      8 C         143.4772  140.6011  158.5800 C.3     1  UNL1        0.0650
      9 O         142.0289  139.0419  157.0895 O.3     1  UNL1       -0.4789
     10 C         142.5809  135.0084  155.1722 C.ar    1  UNL1        0.0195
     11 C         143.7748  135.8643  155.4755 C.ar    1  UNL1        0.0047
     12 C         143.5907  137.2088  156.1146 C.ar    1  UNL1        0.0371
     13 C         142.2129  137.6973  156.4504 C.ar    1  UNL1        0.1427
     14 C         141.0190  136.8414  156.1471 C.ar    1  UNL1        0.0871
     15 C         141.2030  135.4970  155.5080 C.ar    1  UNL1        0.0091
     16 C         144.0712  130.0151  154.3192 C.3     1  UNL1        0.1321
     17 N         143.4499  131.3688  154.1410 N.ar    1  UNL1       -0.3059
     18 C         142.6460  131.8211  152.9580 C.ar    1  UNL1        0.1786
     19 N         142.2227  133.2396  153.2004 N.ar    1  UNL1       -0.2239
     20 C         142.7649  133.6639  154.5330 C.ar    1  UNL1        0.1002
     21 C         143.5233  132.5077  155.1143 C.ar    1  UNL1        0.0965
     22 C         139.6411  137.3300  156.4828 C.2     1  UNL1        0.2457
     23 N         139.4241  138.1888  157.6933 N.am    1  UNL1       -0.3252
     24 O         138.4802  136.9597  155.6082 O.2     1  UNL1       -0.2703
     25 H         140.1861  138.4319  158.2674 H       1  UNL1        0.1453
     26 H         138.5198  138.5095  157.9137 H       1  UNL1        0.1453
     27 C         144.4929  139.2818  163.5021 C.3     1  UNL1        0.1116
     28 C         143.8460  139.7293  164.7794 C.ar    1  UNL1       -0.0129
     29 C         143.6234  138.7475  165.8914 C.ar    1  UNL1       -0.0007
     30 C         142.9766  139.1950  167.1686 C.ar    1  UNL1        0.0369
     31 C         142.5524  140.6242  167.3339 C.ar    1  UNL1        0.1468
     32 C         142.7750  141.6060  166.2219 C.ar    1  UNL1        0.0369
     33 C         143.4218  141.1585  164.9446 C.ar    1  UNL1       -0.0007
     34 O         141.9055  141.0717  168.6112 O.3     1  UNL1       -0.4045
     35 C         142.5344  142.1607  169.4288 C.3     1  UNL1        0.5753
     36 F         143.1632  143.2498  170.2465 F       1  UNL1       -0.1328
     37 F         141.4443  143.1030  169.0121 F       1  UNL1       -0.1328
     38 F         143.6245  141.2184  169.8456 F       1  UNL1       -0.1328
@<TRIPOS>BOND
     1    16    17    1
     2    17    18   ar
     3    18    19   ar
     4    19    20   ar
     5    20    10    1
     6    10    11   ar
     7    11    12   ar
     8    12    13   ar
     9    13     9    1
    10     9     1    1
    11     1     2    1
    12     2     3    1
    13     3     4    1
    14     4     5   am
    15     5     6    2
    16     5    27    1
    17    27    28    1
    18    28    29   ar
    19    29    30   ar
    20    30    31   ar
    21    31    34    1
    22    34    35    1
    23    35    36    1
    24    35    37    1
    25    35    38    1
    26    31    32   ar
    27    32    33   ar
    28     4     7    1
    29     7     8    1
    30    13    14   ar
    31    14    22    1
    32    22    23   am
    33    22    24    2
    34    14    15   ar
    35    20    21   ar
    36    21    17   ar
    37    15    10   ar
    38     8     1    1
    39    33    28   ar
    40    23    25    1
    41    23    26    1
@<TRIPOS>MOLECULE
*****
 38 41 0 0 0
SMALL
GASTEIGER

@<TRIPOS>ATOM
      1 C         141.7209  144.6068  161.2522 C.3     1  UNL1        0.1693
      2 C         141.5283  144.9324  162.7037 C.3     1  UNL1        0.0650
      3 C         142.4150  144.3036  163.7374 C.3     1  UNL1        0.0971
      4 N         143.4942  143.3493  163.3196 N.am    1  UNL1       -0.2790
      5 C         144.3808  142.7206  164.3534 C.2     1  UNL1        0.2301
      6 O         145.4600  141.7662  163.9356 O.2     1  UNL1       -0.2745
      7 C         143.6867  143.0237  161.8681 C.3     1  UNL1        0.0971
      8 C         142.8001  143.6524  160.8344 C.3     1  UNL1        0.0650
      9 O         140.8343  145.2355  160.2185 O.3     1  UNL1       -0.4789
     10 C         138.6315  142.6474  157.2690 C.ar    1  UNL1        0.0195
     11 C         138.5371  142.3579  158.7377 C.ar    1  UNL1        0.0047
     12 C         139.2713  143.2206  159.7208 C.ar    1  UNL1        0.0371
     13 C         140.1000  144.3728  159.2352 C.ar    1  UNL1        0.1427
     14 C         140.1944  144.6623  157.7665 C.ar    1  UNL1        0.0871
     15 C         139.4602  143.7996  156.7834 C.ar    1  UNL1        0.0091
     16 C         134.8227  140.6452  154.2086 C.3     1  UNL1        0.1321
     17 N         136.1465  140.8644  154.8791 N.ar    1  UNL1       -0.3059
     18 C         137.3882  140.0500  154.6663 C.ar    1  UNL1        0.1786
     19 N         138.4701  140.6189  155.5357 N.ar    1  UNL1       -0.2239
     20 C         137.8972  141.7848  156.2857 C.ar    1  UNL1        0.1002
     21 C         136.4612  141.9365  155.8799 C.ar    1  UNL1        0.0965
     22 C         141.0231  145.8145  157.2809 C.2     1  UNL1        0.2457
     23 N         142.3582  146.0936  157.9049 N.am    1  UNL1       -0.3252
     24 O         140.5166  146.6875  156.1714 O.2     1  UNL1       -0.2703
     25 H         142.6907  145.5206  158.6332 H       1  UNL1        0.1453
     26 H         142.9021  146.8498  157.5862 H       1  UNL1        0.1453
     27 C         144.1882  143.0462  165.8049 C.3     1  UNL1        0.1116
     28 C         143.3111  142.1787  166.6582 C.ar    1  UNL1       -0.0129
     29 C         142.5264  141.0625  166.0351 C.ar    1  UNL1       -0.0007
     30 C         141.6493  140.1949  166.8884 C.ar    1  UNL1        0.0369
     31 C         141.5570  140.4436  168.3647 C.ar    1  UNL1        0.1468
     32 C         142.3417  141.5598  168.9878 C.ar    1  UNL1        0.0369
     33 C         143.2188  142.4273  168.1345 C.ar    1  UNL1       -0.0007
     34 O         140.6799  139.5760  169.2180 O.3     1  UNL1       -0.4045
     35 C         139.3775  140.1080  169.7386 C.3     1  UNL1        0.5753
     36 F         138.0752  140.6399  170.2591 F       1  UNL1       -0.1328
     37 F         140.0366  140.4448  171.0432 F       1  UNL1       -0.1328
     38 F         138.7185  139.7711  168.4339 F       1  UNL1       -0.1328
@<TRIPOS>BOND
     1    16    17    1
     2    17    18   ar
     3    18    19   ar
     4    19    20   ar
     5    20    10    1
     6    10    11   ar
     7    11    12   ar
     8    12    13   ar
     9    13     9    1
    10     9     1    1
    11     1     2    1
    12     2     3    1
    13     3     4    1
    14     4     5   am
    15     5     6    2
    16     5    27    1
    17    27    28    1
    18    28    29   ar
    19    29    30   ar
    20    30    31   ar
    21    31    34    1
    22    34    35    1
    23    35    36    1
    24    35    37    1
    25    35    38    1
    26    31    32   ar
    27    32    33   ar
    28     4     7    1
    29     7     8    1
    30    13    14   ar
    31    14    22    1
    32    22    23   am
    33    22    24    2
    34    14    15   ar
    35    20    21   ar
    36    21    17   ar
    37    15    10   ar
    38     8     1    1
    39    33    28   ar
    40    23    25    1
    41    23    26    1
@<TRIPOS>MOLECULE
*****
 38 41 0 0 0
SMALL
GASTEIGER

@<TRIPOS>ATOM
      1 C         139.3081  139.4837  161.0202 C.3     1  UNL1        0.1693
      2 C         138.8904  138.7772  159.7647 C.3     1  UNL1        0.0650
      3 C         139.8998  138.4954  158.6914 C.3     1  UNL1        0.0971
      4 N         141.3268  138.9202  158.8737 N.am    1  UNL1       -0.2790
      5 C         142.3361  138.6385  157.8004 C.2     1  UNL1        0.2301
      6 O         143.7631  139.0633  157.9827 O.2     1  UNL1       -0.2745
      7 C         141.7444  139.6268  160.1292 C.3     1  UNL1        0.0971
      8 C         140.7351  139.9085  161.2024 C.3     1  UNL1        0.0650
      9 O         138.2988  139.7655  162.0934 O.3     1  UNL1       -0.4789
     10 C         139.5865  139.9467  166.4014 C.ar    1  UNL1        0.0195
     11 C         139.2842  138.6229  165.7641 C.ar    1  UNL1        0.0047
     12 C         138.8550  138.5625  164.3281 C.ar    1  UNL1        0.0371
     13 C         138.7281  139.8259  163.5295 C.ar    1  UNL1        0.1427
     14 C         139.0303  141.1496  164.1669 C.ar    1  UNL1        0.0871
     15 C         139.4595  141.2100  165.6028 C.ar    1  UNL1        0.0091
     16 C         142.5843  140.2232  170.7394 C.3     1  UNL1        0.1321
     17 N         141.3937  140.1342  169.8314 N.ar    1  UNL1       -0.3059
     18 C         139.9587  140.0659  170.2632 C.ar    1  UNL1        0.1786
     19 N         139.1071  139.9874  169.0309 N.ar    1  UNL1       -0.2239
     20 C         140.0157  140.0071  167.8375 C.ar    1  UNL1        0.1002
     21 C         141.4289  140.0978  168.3323 C.ar    1  UNL1        0.0965
     22 C         138.9033  142.4130  163.3682 C.2     1  UNL1        0.2457
     23 N         137.6300  142.7111  162.6336 N.am    1  UNL1       -0.3252
     24 O         140.0497  143.3783  163.3043 O.2     1  UNL1       -0.2703
     25 H         136.8776  142.0776  162.6756 H       1  UNL1        0.1453
     26 H         137.5467  143.5403  162.1095 H       1  UNL1        0.1453
     27 C         141.9184  137.9319  156.5449 C.3     1  UNL1        0.1116
     28 C         142.0780  136.4446  156.4328 C.ar    1  UNL1       -0.0129
     29 C         141.2537  135.6743  155.4442 C.ar    1  UNL1       -0.0007
     30 C         141.4132  134.1871  155.3321 C.ar    1  UNL1        0.0369
     31 C         142.3970  133.4701  156.2085 C.ar    1  UNL1        0.1468
     32 C         143.2212  134.2404  157.1971 C.ar    1  UNL1        0.0369
     33 C         143.0617  135.7277  157.3092 C.ar    1  UNL1       -0.0007
     34 O         142.5565  131.9828  156.0964 O.3     1  UNL1       -0.4045
     35 C         143.9060  131.3926  155.8126 C.3     1  UNL1        0.5753
     36 F         145.2555  130.8023  155.5288 F       1  UNL1       -0.1328
     37 F         143.9686  130.8618  157.2141 F       1  UNL1       -0.1328
     38 F         143.8434  131.9233  154.4110 F       1  UNL1       -0.1328
@<TRIPOS>BOND
     1    16    17    1
     2    17    18   ar
     3    18    19   ar
     4    19    20   ar
     5    20    10    1
     6    10    11   ar
     7    11    12   ar
     8    12    13   ar
     9    13     9    1
    10     9     1    1
    11     1     2    1
    12     2     3    1
    13     3     4    1
    14     4     5   am
    15     5     6    2
    16     5    27    1
    17    27    28    1
    18    28    29   ar
    19    29    30   ar
    20    30    31   ar
    21    31    34    1
    22    34    35    1
    23    35    36    1
    24    35    37    1
    25    35    38    1
    26    31    32   ar
    27    32    33   ar
    28     4     7    1
    29     7     8    1
    30    13    14   ar
    31    14    22    1
    32    22    23   am
    33    22    24    2
    34    14    15   ar
    35    20    21   ar
    36    21    17   ar
    37    15    10   ar
    38     8     1    1
    39    33    28   ar
    40    23    25    1
    41    23    26    1
@<TRIPOS>MOLECULE
*****
 38 41 0 0 0
SMALL
GASTEIGER

@<TRIPOS>ATOM
      1 C         139.6888  140.6825  158.4824 C.3     1  UNL1        0.1693
      2 C         139.3992  139.6498  159.5310 C.3     1  UNL1        0.0650
      3 C         138.7843  140.0587  160.8367 C.3     1  UNL1        0.0971
      4 N         138.4592  141.5002  161.0938 N.am    1  UNL1       -0.2790
      5 C         137.8443  141.9090  162.3995 C.2     1  UNL1        0.2301
      6 O         137.5191  143.3507  162.6566 O.2     1  UNL1       -0.2745
      7 C         138.7488  142.5329  160.0452 C.3     1  UNL1        0.0971
      8 C         139.3636  142.1241  158.7395 C.3     1  UNL1        0.0650
      9 O         140.3037  140.2737  157.1767 O.3     1  UNL1       -0.4789
     10 C         142.1128  136.1780  156.7262 C.ar    1  UNL1        0.0195
     11 C         142.7649  137.1919  157.6188 C.ar    1  UNL1        0.0047
     12 C         142.1618  138.5571  157.7690 C.ar    1  UNL1        0.0371
     13 C         140.9067  138.9084  157.0265 C.ar    1  UNL1        0.1427
     14 C         140.2546  137.8945  156.1340 C.ar    1  UNL1        0.0871
     15 C         140.8576  136.5293  155.9838 C.ar    1  UNL1        0.0091
     16 C         144.9727  131.8270  157.6041 C.3     1  UNL1        0.1321
     17 N         144.0303  132.8129  156.9795 N.ar    1  UNL1       -0.3059
     18 C         143.2571  132.6110  155.7101 C.ar    1  UNL1        0.1786
     19 N         142.4447  133.8470  155.4607 N.ar    1  UNL1       -0.2239
     20 C         142.7158  134.8128  156.5760 C.ar    1  UNL1        0.1002
     21 C         143.6958  134.1736  157.5147 C.ar    1  UNL1        0.0965
     22 C         138.9994  138.2458  155.3916 C.2     1  UNL1        0.2457
     23 N         138.8711  139.5841  154.7264 N.am    1  UNL1       -0.3252
     24 O         137.8725  137.2588  155.3143 O.2     1  UNL1       -0.2703
     25 H         139.6107  140.2319  154.7771 H       1  UNL1        0.1453
     26 H         138.0473  139.8146  154.2391 H       1  UNL1        0.1453
     27 C         137.5547  140.8763  163.4481 C.3     1  UNL1        0.1116
     28 C         138.3708  140.8354  164.7060 C.ar    1  UNL1       -0.0129
     29 C         138.3067  139.6347  165.6028 C.ar    1  UNL1       -0.0007
     30 C         139.1227  139.5937  166.8607 C.ar    1  UNL1        0.0369
     31 C         140.0028  140.7534  167.2218 C.ar    1  UNL1        0.1468
     32 C         140.0669  141.9541  166.3250 C.ar    1  UNL1        0.0369
     33 C         139.2509  141.9951  165.0671 C.ar    1  UNL1       -0.0007
     34 O         140.8189  140.7124  168.4798 O.3     1  UNL1       -0.4045
     35 C         140.2133  140.1933  169.7501 C.3     1  UNL1        0.5753
     36 F         139.6076  139.6742  171.0204 F       1  UNL1       -0.1328
     37 F         141.3051  139.1698  169.8524 F       1  UNL1       -0.1328
     38 F         139.1215  141.2168  169.6479 F       1  UNL1       -0.1328
@<TRIPOS>BOND
     1    16    17    1
     2    17    18   ar
     3    18    19   ar
     4    19    20   ar
     5    20    10    1
     6    10    11   ar
     7    11    12   ar
     8    12    13   ar
     9    13     9    1
    10     9     1    1
    11     1     2    1
    12     2     3    1
    13     3     4    1
    14     4     5   am
    15     5     6    2
    16     5    27    1
    17    27    28    1
    18    28    29   ar
    19    29    30   ar
    20    30    31   ar
    21    31    34    1
    22    34    35    1
    23    35    36    1
    24    35    37    1
    25    35    38    1
    26    31    32   ar
    27    32    33   ar
    28     4     7    1
    29     7     8    1
    30    13    14   ar
    31    14    22    1
    32    22    23   am
    33    22    24    2
    34    14    15   ar
    35    20    21   ar
    36    21    17   ar
    37    15    10   ar
    38     8     1    1
    39    33    28   ar
    40    23    25    1
    41    23    26    1
@<TRIPOS>MOLECULE
*****
 38 41 0 0 0
SMALL
GASTEIGER

@<TRIPOS>ATOM
      1 C         139.8921  140.7379  158.5969 C.3     1  UNL1        0.1693
      2 C         139.7492  139.6814  159.6521 C.3     1  UNL1        0.0650
      3 C         139.0544  139.9996  160.9429 C.3     1  UNL1        0.0971
      4 N         138.5024  141.3743  161.1784 N.am    1  UNL1       -0.2790
      5 C         137.8075  141.6924  162.4691 C.2     1  UNL1        0.2301
      6 O         137.2555  143.0671  162.7047 O.2     1  UNL1       -0.2745
      7 C         138.6452  142.4308  160.1232 C.3     1  UNL1        0.0971
      8 C         139.3401  142.1126  158.8325 C.3     1  UNL1        0.0650
      9 O         140.5869  140.4197  157.3063 O.3     1  UNL1       -0.4789
     10 C         141.9580  136.2169  156.4655 C.ar    1  UNL1        0.0195
     11 C         140.5953  136.6634  156.0254 C.ar    1  UNL1        0.0047
     12 C         140.1383  138.0643  156.3057 C.ar    1  UNL1        0.0371
     13 C         141.0440  139.0187  157.0260 C.ar    1  UNL1        0.1427
     14 C         142.4067  138.5722  157.4660 C.ar    1  UNL1        0.0871
     15 C         142.8637  137.1713  157.1858 C.ar    1  UNL1        0.0091
     16 C         144.9056  131.8403  156.2719 C.3     1  UNL1        0.1321
     17 N         143.7699  132.8043  156.0962 N.ar    1  UNL1       -0.3059
     18 C         142.4666  132.5161  155.4116 C.ar    1  UNL1        0.1786
     19 N         141.6293  133.7594  155.4667 N.ar    1  UNL1       -0.2239
     20 C         142.4150  134.8160  156.1852 C.ar    1  UNL1        0.1002
     21 C         143.7379  134.2257  156.5743 C.ar    1  UNL1        0.0965
     22 C         143.3124  139.5266  158.1863 C.2     1  UNL1        0.2457
     23 N         143.5740  140.8885  157.6147 N.am    1  UNL1       -0.3252
     24 O         143.9565  139.1191  159.4782 O.2     1  UNL1       -0.2703
     25 H         143.1512  141.1560  156.7668 H       1  UNL1        0.1453
     26 H         144.1684  141.5149  158.0875 H       1  UNL1        0.1453
     27 C         137.6647  140.6359  163.5242 C.3     1  UNL1        0.1116
     28 C         138.4166  140.7598  164.8163 C.ar    1  UNL1       -0.0129
     29 C         138.3660  139.6489  165.8230 C.ar    1  UNL1       -0.0007
     30 C         139.1178  139.7728  167.1150 C.ar    1  UNL1        0.0369
     31 C         139.9202  141.0076  167.4004 C.ar    1  UNL1        0.1468
     32 C         139.9707  142.1185  166.3937 C.ar    1  UNL1        0.0369
     33 C         139.2189  141.9946  165.1017 C.ar    1  UNL1       -0.0007
     34 O         140.6721  141.1315  168.6924 O.3     1  UNL1       -0.4045
     35 C         140.2377  142.1346  169.7197 C.3     1  UNL1        0.5753
     36 F         139.8033  143.1376  170.7469 F       1  UNL1       -0.1328
     37 F         139.0262  141.3026  170.0198 F       1  UNL1       -0.1328
     38 F         141.4492  142.9666  169.4196 F       1  UNL1       -0.1328
@<TRIPOS>BOND
     1    16    17    1
     2    17    18   ar
     3    18    19   ar
     4    19    20   ar
     5    20    10    1
     6    10    11   ar
     7    11    12   ar
     8    12    13   ar
     9    13     9    1
    10     9     1    1
    11     1     2    1
    12     2     3    1
    13     3     4    1
    14     4     5   am
    15     5     6    2
    16     5    27    1
    17    27    28    1
    18    28    29   ar
    19    29    30   ar
    20    30    31   ar
    21    31    34    1
    22    34    35    1
    23    35    36    1
    24    35    37    1
    25    35    38    1
    26    31    32   ar
    27    32    33   ar
    28     4     7    1
    29     7     8    1
    30    13    14   ar
    31    14    22    1
    32    22    23   am
    33    22    24    2
    34    14    15   ar
    35    20    21   ar
    36    21    17   ar
    37    15    10   ar
    38     8     1    1
    39    33    28   ar
    40    23    25    1
    41    23    26    1
@<TRIPOS>MOLECULE
*****
 38 41 0 0 0
SMALL
GASTEIGER

@<TRIPOS>ATOM
      1 C         138.7924  141.9544  160.2628 C.3     1  UNL1        0.1693
      2 C         138.0660  141.6591  161.5416 C.3     1  UNL1        0.0650
      3 C         138.3928  140.4197  162.3208 C.3     1  UNL1        0.0971
      4 N         139.4460  139.4756  161.8213 N.am    1  UNL1       -0.2790
      5 C         139.7727  138.2363  162.6005 C.2     1  UNL1        0.2301
      6 O         140.8259  137.2921  162.1010 O.2     1  UNL1       -0.2745
      7 C         140.1723  139.7709  160.5425 C.3     1  UNL1        0.0971
      8 C         139.8456  141.0102  159.7633 C.3     1  UNL1        0.0650
      9 O         138.4656  143.1937  159.4836 O.3     1  UNL1       -0.4789
     10 C         141.0620  144.4239  156.0202 C.ar    1  UNL1        0.0195
     11 C         139.8829  143.5254  155.7915 C.ar    1  UNL1        0.0047
     12 C         139.0175  143.1153  156.9460 C.ar    1  UNL1        0.0371
     13 C         139.3311  143.6038  158.3291 C.ar    1  UNL1        0.1427
     14 C         140.5102  144.5023  158.5577 C.ar    1  UNL1        0.0871
     15 C         141.3757  144.9124  157.4033 C.ar    1  UNL1        0.0091
     16 C         145.2033  144.9504  152.7869 C.3     1  UNL1        0.1321
     17 N         143.8311  145.0760  153.3796 N.ar    1  UNL1       -0.3059
     18 C         142.6877  145.8542  152.7988 C.ar    1  UNL1        0.1786
     19 N         141.5113  145.7046  153.7173 N.ar    1  UNL1       -0.2239
     20 C         141.9276  144.8340  154.8657 C.ar    1  UNL1        0.1002
     21 C         143.3613  144.4455  154.6570 C.ar    1  UNL1        0.0965
     22 C         140.8239  144.9908  159.9409 C.2     1  UNL1        0.2457
     23 N         139.7661  145.6801  160.7507 N.am    1  UNL1       -0.3252
     24 O         142.1953  144.7900  160.5142 O.2     1  UNL1       -0.2703
     25 H         138.8659  145.8119  160.3744 H       1  UNL1        0.1453
     26 H         139.9719  146.0007  161.6585 H       1  UNL1        0.1453
     27 C         139.0464  137.9411  163.8793 C.3     1  UNL1        0.1116
     28 C         139.4621  138.6183  165.1515 C.ar    1  UNL1       -0.0129
     29 C         140.9017  138.9750  165.3755 C.ar    1  UNL1       -0.0007
     30 C         141.3175  139.6522  166.6477 C.ar    1  UNL1        0.0369
     31 C         140.2936  139.9728  167.6959 C.ar    1  UNL1        0.1468
     32 C         138.8539  139.6161  167.4719 C.ar    1  UNL1        0.0369
     33 C         138.4382  138.9389  166.1997 C.ar    1  UNL1       -0.0007
     34 O         140.7093  140.6500  168.9681 O.3     1  UNL1       -0.4045
     35 C         140.3325  142.0810  169.2137 C.3     1  UNL1        0.5753
     36 F         139.9558  143.5121  169.4593 F       1  UNL1       -0.1328
     37 F         141.4772  142.5298  168.3545 F       1  UNL1       -0.1328
     38 F         139.1879  141.6323  170.0729 F       1  UNL1       -0.1328
@<TRIPOS>BOND
     1    16    17    1
     2    17    18   ar
     3    18    19   ar
     4    19    20   ar
     5    20    10    1
     6    10    11   ar
     7    11    12   ar
     8    12    13   ar
     9    13     9    1
    10     9     1    1
    11     1     2    1
    12     2     3    1
    13     3     4    1
    14     4     5   am
    15     5     6    2
    16     5    27    1
    17    27    28    1
    18    28    29   ar
    19    29    30   ar
    20    30    31   ar
    21    31    34    1
    22    34    35    1
    23    35    36    1
    24    35    37    1
    25    35    38    1
    26    31    32   ar
    27    32    33   ar
    28     4     7    1
    29     7     8    1
    30    13    14   ar
    31    14    22    1
    32    22    23   am
    33    22    24    2
    34    14    15   ar
    35    20    21   ar
    36    21    17   ar
    37    15    10   ar
    38     8     1    1
    39    33    28   ar
    40    23    25    1
    41    23    26    1
