@<TRIPOS>MOLECULE
*****
 31 35 0 0 0
SMALL
GASTEIGER

@<TRIPOS>ATOM
      1 C         141.0691  144.6807  162.4732 C.2     1  UNL1        0.0866
      2 N         139.8589  145.5460  162.6645 N.2     1  UNL1       -0.1523
      3 N         139.4152  146.0275  161.3149 N.2     1  UNL1       -0.1523
      4 C         140.3513  145.4598  160.2895 C.2     1  UNL1        0.0858
      5 C         141.3735  144.6275  161.0053 C.3     1  UNL1        0.0883
      6 C         142.3096  144.0598  159.9799 C.3     1  UNL1        0.0384
      7 C         141.8659  144.5413  158.6303 C.ar    1  UNL1       -0.0202
      8 C         142.4077  144.3036  157.2519 C.ar    1  UNL1       -0.0045
      9 C         141.7391  144.9311  156.0649 C.ar    1  UNL1       -0.0027
     10 C         140.5288  145.7964  156.2562 C.ar    1  UNL1        0.0022
     11 C         139.9871  146.0340  157.6346 C.ar    1  UNL1       -0.0014
     12 C         140.6557  145.4065  158.8216 C.ar    1  UNL1        0.0115
     13 C         142.3945  142.6016  165.4709 C.ar    1  UNL1        0.0710
     14 C         141.2714  143.0573  164.5871 C.ar    1  UNL1        0.0165
     15 C         141.8398  143.9900  163.5590 C.ar    1  UNL1        0.0233
     16 C         143.3142  144.1109  163.8074 C.ar    1  UNL1        0.0373
     17 S         143.6570  143.2527  164.9890 S.2     1  UNL1       -0.0780
     18 C         142.1573  140.7187  167.7942 C.1     1  UNL1       -0.0534
     19 C         142.2759  141.6601  166.6326 C.1     1  UNL1       -0.0554
     20 C         142.0387  139.7773  168.9560 C.3     1  UNL1        0.2182
     21 O         140.7103  139.5702  169.6211 O.3     1  UNL1       -0.3374
     22 C         140.0978  140.6730  170.4326 C.3     1  UNL1        0.1755
     23 C         140.9726  141.5816  171.2444 C.3     1  UNL1        0.1743
     24 C         140.5041  143.5618  169.6290 C.3     1  UNL1        0.1742
     25 O         141.3170  142.9479  170.7301 O.3     1  UNL1       -0.3484
     26 C         139.8603  146.4239  155.0690 C.3     1  UNL1        0.1556
     27 N         139.5879  147.8989  155.0545 N.ar    1  UNL1       -0.2255
     28 C         140.1929  148.8979  154.1133 C.ar    1  UNL1        0.1975
     29 N         139.6416  150.2503  154.4556 N.ar    1  UNL1       -0.2007
     30 C         138.6959  150.0871  155.6085 C.ar    1  UNL1        0.2210
     31 N         138.6627  148.6338  155.9786 N.ar    1  UNL1       -0.1448
@<TRIPOS>BOND
     1    24    25    1
     2    25    23    1
     3    23    22    1
     4    22    21    1
     5    21    20    1
     6    20    18    1
     7    18    19    3
     8    19    13    1
     9    13    14   ar
    10    14    15   ar
    11    15     1    1
    12     1     2    2
    13     2     3    1
    14     3     4    2
    15     4     5    1
    16     5     6    1
    17     6     7    1
    18     7     8   ar
    19     8     9   ar
    20     9    10   ar
    21    10    26    1
    22    26    27    1
    23    27    28   ar
    24    28    29   ar
    25    29    30   ar
    26    30    31   ar
    27    10    11   ar
    28    11    12   ar
    29    15    16   ar
    30    16    17   ar
    31    17    13   ar
    32     5     1    1
    33    12     7   ar
    34    12     4    1
    35    31    27   ar
@<TRIPOS>MOLECULE
*****
 31 35 0 0 0
SMALL
GASTEIGER

@<TRIPOS>ATOM
      1 C         141.8814  139.5045  162.1871 C.2     1  UNL1        0.0866
      2 N         143.0771  140.2215  162.7405 N.2     1  UNL1       -0.1523
      3 N         142.8267  140.4857  164.1957 N.2     1  UNL1       -0.1523
      4 C         141.4761  139.9320  164.5416 C.2     1  UNL1        0.0858
      5 C         140.8920  139.3256  163.3002 C.3     1  UNL1        0.0883
      6 C         139.5415  138.7720  163.6461 C.3     1  UNL1        0.0384
      7 C         139.2910  139.0362  165.1013 C.ar    1  UNL1       -0.0202
      8 C         138.1287  138.7166  165.9938 C.ar    1  UNL1       -0.0045
      9 C         138.1620  139.1139  167.4398 C.ar    1  UNL1       -0.0027
     10 C         139.3577  139.8309  167.9933 C.ar    1  UNL1        0.0022
     11 C         140.5200  140.1505  167.1007 C.ar    1  UNL1       -0.0014
     12 C         140.4867  139.7532  165.6547 C.ar    1  UNL1        0.0115
     13 C         142.0716  137.9475  158.6367 C.ar    1  UNL1        0.0710
     14 C         142.6315  138.1388  160.0151 C.ar    1  UNL1        0.0165
     15 C         141.7060  139.0468  160.7695 C.ar    1  UNL1        0.0233
     16 C         140.5741  139.4167  159.8573 C.ar    1  UNL1        0.0373
     17 S         140.8001  138.7373  158.5391 S.2     1  UNL1       -0.0780
     18 C         143.2824  136.2785  156.4578 C.1     1  UNL1       -0.0534
     19 C         142.6770  137.1130  157.5472 C.1     1  UNL1       -0.0554
     20 C         143.8878  135.4439  155.3682 C.3     1  UNL1        0.2182
     21 O         143.1808  134.2118  154.8865 O.3     1  UNL1       -0.3374
     22 C         143.1484  132.9819  155.7445 C.3     1  UNL1        0.1755
     23 C         144.1683  131.9004  155.5439 C.3     1  UNL1        0.1743
     24 C         145.3380  132.0545  157.8586 C.3     1  UNL1        0.1742
     25 O         145.4200  131.8871  156.3703 O.3     1  UNL1       -0.3484
     26 C         139.3910  140.2282  169.4394 C.3     1  UNL1        0.1556
     27 N         140.2040  141.4116  169.8735 N.ar    1  UNL1       -0.2255
     28 C         141.1645  141.4468  171.0251 C.ar    1  UNL1        0.1975
     29 N         141.7535  142.8245  171.0956 N.ar    1  UNL1       -0.2007
     30 C         141.1570  143.6409  169.9875 C.ar    1  UNL1        0.2210
     31 N         140.1994  142.7676  169.2322 N.ar    1  UNL1       -0.1448
@<TRIPOS>BOND
     1    24    25    1
     2    25    23    1
     3    23    22    1
     4    22    21    1
     5    21    20    1
     6    20    18    1
     7    18    19    3
     8    19    13    1
     9    13    14   ar
    10    14    15   ar
    11    15     1    1
    12     1     2    2
    13     2     3    1
    14     3     4    2
    15     4     5    1
    16     5     6    1
    17     6     7    1
    18     7     8   ar
    19     8     9   ar
    20     9    10   ar
    21    10    26    1
    22    26    27    1
    23    27    28   ar
    24    28    29   ar
    25    29    30   ar
    26    30    31   ar
    27    10    11   ar
    28    11    12   ar
    29    15    16   ar
    30    16    17   ar
    31    17    13   ar
    32     5     1    1
    33    12     7   ar
    34    12     4    1
    35    31    27   ar
@<TRIPOS>MOLECULE
*****
 31 35 0 0 0
SMALL
GASTEIGER

@<TRIPOS>ATOM
      1 C         139.9556  141.2881  161.8315 C.2     1  UNL1        0.0866
      2 N         140.9501  142.3556  162.1798 N.2     1  UNL1       -0.1523
      3 N         141.0781  142.4004  163.6737 N.2     1  UNL1       -0.1523
      4 C         140.1626  141.3604  164.2487 C.2     1  UNL1        0.0858
      5 C         139.4689  140.6730  163.1101 C.3     1  UNL1        0.0883
      6 C         138.5535  139.6331  163.6851 C.3     1  UNL1        0.0384
      7 C         138.6814  139.6778  165.1790 C.ar    1  UNL1       -0.0202
      8 C         138.0209  138.8844  166.2671 C.ar    1  UNL1       -0.0045
      9 C         138.3548  139.1585  167.7035 C.ar    1  UNL1       -0.0027
     10 C         139.3493  140.2260  168.0518 C.ar    1  UNL1        0.0022
     11 C         140.0099  141.0195  166.9637 C.ar    1  UNL1       -0.0014
     12 C         139.6759  140.7454  165.5273 C.ar    1  UNL1        0.0115
     13 C         138.2971  140.8062  158.3555 C.ar    1  UNL1        0.0710
     14 C         138.3607  141.4786  159.6949 C.ar    1  UNL1        0.0165
     15 C         139.5236  140.9031  160.4476 C.ar    1  UNL1        0.0233
     16 C         140.1787  139.8751  159.5735 C.ar    1  UNL1        0.0373
     17 S         139.4206  139.8152  158.2804 S.2     1  UNL1       -0.0780
     18 C         136.2774  141.3483  156.2046 C.1     1  UNL1       -0.0534
     19 C         137.2872  141.0773  157.2800 C.1     1  UNL1       -0.0554
     20 C         135.2675  141.6195  155.1291 C.3     1  UNL1        0.2182
     21 O         134.0465  140.7561  155.0117 O.3     1  UNL1       -0.3374
     22 C         133.9801  139.4477  155.7422 C.3     1  UNL1        0.1755
     23 C         132.8998  139.2080  156.7549 C.3     1  UNL1        0.1743
     24 C         130.7126  140.5265  156.2777 C.3     1  UNL1        0.1742
     25 O         131.9438  140.3090  157.1065 O.3     1  UNL1       -0.3484
     26 C         139.6832  140.5001  169.4883 C.3     1  UNL1        0.1556
     27 N         140.5652  141.6597  169.8452 N.ar    1  UNL1       -0.2255
     28 C         140.1086  143.0601  170.1289 C.ar    1  UNL1        0.1975
     29 N         141.3198  143.8884  170.4401 N.ar    1  UNL1       -0.2007
     30 C         142.5250  143.0000  170.3488 C.ar    1  UNL1        0.2210
     31 N         142.0586  141.6226  169.9811 N.ar    1  UNL1       -0.1448
@<TRIPOS>BOND
     1    24    25    1
     2    25    23    1
     3    23    22    1
     4    22    21    1
     5    21    20    1
     6    20    18    1
     7    18    19    3
     8    19    13    1
     9    13    14   ar
    10    14    15   ar
    11    15     1    1
    12     1     2    2
    13     2     3    1
    14     3     4    2
    15     4     5    1
    16     5     6    1
    17     6     7    1
    18     7     8   ar
    19     8     9   ar
    20     9    10   ar
    21    10    26    1
    22    26    27    1
    23    27    28   ar
    24    28    29   ar
    25    29    30   ar
    26    30    31   ar
    27    10    11   ar
    28    11    12   ar
    29    15    16   ar
    30    16    17   ar
    31    17    13   ar
    32     5     1    1
    33    12     7   ar
    34    12     4    1
    35    31    27   ar
@<TRIPOS>MOLECULE
*****
 31 35 0 0 0
SMALL
GASTEIGER

@<TRIPOS>ATOM
      1 C         139.5273  139.6922  162.5059 C.2     1  UNL1        0.0866
      2 N         138.6341  139.0431  163.5213 N.2     1  UNL1       -0.1523
      3 N         139.1327  139.4193  164.8851 N.2     1  UNL1       -0.1523
      4 C         140.3340  140.3009  164.7126 C.2     1  UNL1        0.0858
      5 C         140.5779  140.4695  163.2422 C.3     1  UNL1        0.0883
      6 C         141.7791  141.3511  163.0697 C.3     1  UNL1        0.0384
      7 C         142.2778  141.7273  164.4335 C.ar    1  UNL1       -0.0202
      8 C         143.4296  142.5770  164.8819 C.ar    1  UNL1       -0.0045
      9 C         143.6884  142.7776  166.3457 C.ar    1  UNL1       -0.0027
     10 C         142.7953  142.1285  167.3611 C.ar    1  UNL1        0.0022
     11 C         141.6434  141.2788  166.9127 C.ar    1  UNL1       -0.0014
     12 C         141.3846  141.0782  165.4489 C.ar    1  UNL1        0.0115
     13 C         139.6046  138.7924  158.7310 C.ar    1  UNL1        0.0710
     14 C         139.9900  138.5110  160.1531 C.ar    1  UNL1        0.0165
     15 C         139.3934  139.5832  161.0159 C.ar    1  UNL1        0.0233
     16 C         138.6393  140.5273  160.1270 C.ar    1  UNL1        0.0373
     17 S         138.7699  140.0385  158.7149 S.2     1  UNL1       -0.0780
     18 C         140.3693  137.1510  156.3392 C.1     1  UNL1       -0.0534
     19 C         139.9870  137.9717  157.5351 C.1     1  UNL1       -0.0554
     20 C         140.7516  136.3303  155.1433 C.3     1  UNL1        0.2182
     21 O         141.0868  134.8774  155.3067 O.3     1  UNL1       -0.3374
     22 C         142.4957  134.4624  155.6110 C.3     1  UNL1        0.1755
     23 C         143.1766  134.9699  156.8475 C.3     1  UNL1        0.1743
     24 C         144.6110  133.0604  157.8705 C.3     1  UNL1        0.1742
     25 O         143.4729  134.0314  157.9794 O.3     1  UNL1       -0.3484
     26 C         143.0541  142.3291  168.8250 C.3     1  UNL1        0.1556
     27 N         141.9040  142.4500  169.7802 N.ar    1  UNL1       -0.2255
     28 C         141.7903  141.7720  171.1134 C.ar    1  UNL1        0.1975
     29 N         140.4817  142.1730  171.7273 N.ar    1  UNL1       -0.2007
     30 C         139.7866  143.0988  170.7734 C.ar    1  UNL1        0.2210
     31 N         140.6656  143.2700  169.5701 N.ar    1  UNL1       -0.1448
@<TRIPOS>BOND
     1    24    25    1
     2    25    23    1
     3    23    22    1
     4    22    21    1
     5    21    20    1
     6    20    18    1
     7    18    19    3
     8    19    13    1
     9    13    14   ar
    10    14    15   ar
    11    15     1    1
    12     1     2    2
    13     2     3    1
    14     3     4    2
    15     4     5    1
    16     5     6    1
    17     6     7    1
    18     7     8   ar
    19     8     9   ar
    20     9    10   ar
    21    10    26    1
    22    26    27    1
    23    27    28   ar
    24    28    29   ar
    25    29    30   ar
    26    30    31   ar
    27    10    11   ar
    28    11    12   ar
    29    15    16   ar
    30    16    17   ar
    31    17    13   ar
    32     5     1    1
    33    12     7   ar
    34    12     4    1
    35    31    27   ar
@<TRIPOS>MOLECULE
*****
 31 35 0 0 0
SMALL
GASTEIGER

@<TRIPOS>ATOM
      1 C         140.7306  144.0760  161.7446 C.2     1  UNL1        0.0866
      2 N         141.5032  145.0300  162.6066 N.2     1  UNL1       -0.1523
      3 N         141.4593  144.5203  164.0167 N.2     1  UNL1       -0.1523
      4 C         140.6595  143.2512  164.0261 C.2     1  UNL1        0.0858
      5 C         140.2092  142.9767  162.6218 C.3     1  UNL1        0.0883
      6 C         139.4095  141.7077  162.6313 C.3     1  UNL1        0.0384
      7 C         139.3656  141.1979  164.0413 C.ar    1  UNL1       -0.0202
      8 C         138.7219  139.9883  164.6517 C.ar    1  UNL1       -0.0045
      9 C         138.8508  139.7327  166.1240 C.ar    1  UNL1       -0.0027
     10 C         139.6233  140.6867  166.9861 C.ar    1  UNL1        0.0022
     11 C         140.2670  141.8962  166.3758 C.ar    1  UNL1       -0.0014
     12 C         140.1381  142.1519  164.9034 C.ar    1  UNL1        0.0115
     13 C         140.1100  145.1322  158.0615 C.ar    1  UNL1        0.0710
     14 C         140.2649  145.4734  159.5140 C.ar    1  UNL1        0.0165
     15 C         140.5170  144.1997  160.2650 C.ar    1  UNL1        0.0233
     16 C         140.5180  143.0712  159.2768 C.ar    1  UNL1        0.0373
     17 S         140.2664  143.6476  157.9149 S.2     1  UNL1       -0.0780
     18 C         139.5805  147.0774  155.8400 C.1     1  UNL1       -0.0534
     19 C         139.8452  146.1048  156.9507 C.1     1  UNL1       -0.0554
     20 C         139.3158  148.0501  154.7292 C.3     1  UNL1        0.2182
     21 O         140.2304  149.2211  154.5237 O.3     1  UNL1       -0.3374
     22 C         139.7012  150.6184  154.6561 C.3     1  UNL1        0.1755
     23 C         138.5575  150.9024  155.5841 C.3     1  UNL1        0.1743
     24 C         138.0912  149.7588  157.8699 C.3     1  UNL1        0.1742
     25 O         138.7615  150.8352  157.0686 O.3     1  UNL1       -0.3484
     26 C         139.7522  140.4310  168.4586 C.3     1  UNL1        0.1556
     27 N         140.5725  141.3532  169.3110 N.ar    1  UNL1       -0.2255
     28 C         140.0675  142.5633  170.0392 C.ar    1  UNL1        0.1975
     29 N         141.2247  143.1852  170.7631 N.ar    1  UNL1       -0.2007
     30 C         142.4451  142.3593  170.4822 C.ar    1  UNL1        0.2210
     31 N         142.0419  141.2271  169.5847 N.ar    1  UNL1       -0.1448
@<TRIPOS>BOND
     1    24    25    1
     2    25    23    1
     3    23    22    1
     4    22    21    1
     5    21    20    1
     6    20    18    1
     7    18    19    3
     8    19    13    1
     9    13    14   ar
    10    14    15   ar
    11    15     1    1
    12     1     2    2
    13     2     3    1
    14     3     4    2
    15     4     5    1
    16     5     6    1
    17     6     7    1
    18     7     8   ar
    19     8     9   ar
    20     9    10   ar
    21    10    26    1
    22    26    27    1
    23    27    28   ar
    24    28    29   ar
    25    29    30   ar
    26    30    31   ar
    27    10    11   ar
    28    11    12   ar
    29    15    16   ar
    30    16    17   ar
    31    17    13   ar
    32     5     1    1
    33    12     7   ar
    34    12     4    1
    35    31    27   ar
@<TRIPOS>MOLECULE
*****
 31 35 0 0 0
SMALL
GASTEIGER

@<TRIPOS>ATOM
      1 C         141.4369  144.1889  162.0101 C.2     1  UNL1        0.0866
      2 N         141.1612  145.2039  163.0797 N.2     1  UNL1       -0.1523
      3 N         141.2892  144.5222  164.4097 N.2     1  UNL1       -0.1523
      4 C         141.6440  143.0859  164.1621 C.2     1  UNL1        0.0858
      5 C         141.7353  142.8800  162.6791 C.3     1  UNL1        0.0883
      6 C         142.0901  141.4437  162.4316 C.3     1  UNL1        0.0384
      7 C         142.2181  140.7620  163.7616 C.ar    1  UNL1       -0.0202
      8 C         142.5501  139.3482  164.1369 C.ar    1  UNL1       -0.0045
      9 C         142.6064  138.9493  165.5817 C.ar    1  UNL1       -0.0027
     10 C         142.3307  139.9642  166.6513 C.ar    1  UNL1        0.0022
     11 C         141.9987  141.3780  166.2760 C.ar    1  UNL1       -0.0014
     12 C         141.9424  141.7769  164.8311 C.ar    1  UNL1        0.0115
     13 C         140.8590  145.3470  158.3508 C.ar    1  UNL1        0.0710
     14 C         140.5504  145.4324  159.8163 C.ar    1  UNL1        0.0165
     15 C         141.4176  144.4391  160.5313 C.ar    1  UNL1        0.0233
     16 C         142.2622  143.7397  159.5077 C.ar    1  UNL1        0.0373
     17 S         141.9169  144.3008  158.1601 S.2     1  UNL1       -0.0780
     18 C         139.5841  146.9814  156.1822 C.1     1  UNL1       -0.0534
     19 C         140.2215  146.1642  157.2665 C.1     1  UNL1       -0.0554
     20 C         138.9467  147.7986  155.0978 C.3     1  UNL1        0.2182
     21 O         139.7918  148.3878  154.0076 O.3     1  UNL1       -0.3374
     22 C         139.7031  149.8531  153.6989 C.3     1  UNL1        0.1755
     23 C         140.4560  150.8431  154.5374 C.3     1  UNL1        0.1743
     24 C         138.9776  151.2666  156.6315 C.3     1  UNL1        0.1742
     25 O         139.7107  151.7890  155.4316 O.3     1  UNL1       -0.3484
     26 C         142.3870  139.5653  168.0962 C.3     1  UNL1        0.1556
     27 N         141.2669  139.9384  169.0215 N.ar    1  UNL1       -0.2255
     28 C         141.4144  140.4311  170.4306 C.ar    1  UNL1        0.1975
     29 N         140.0414  140.6816  170.9801 N.ar    1  UNL1       -0.2007
     30 C         139.0453  140.3438  169.9107 C.ar    1  UNL1        0.2210
     31 N         139.8027  139.8845  168.7002 N.ar    1  UNL1       -0.1448
@<TRIPOS>BOND
     1    24    25    1
     2    25    23    1
     3    23    22    1
     4    22    21    1
     5    21    20    1
     6    20    18    1
     7    18    19    3
     8    19    13    1
     9    13    14   ar
    10    14    15   ar
    11    15     1    1
    12     1     2    2
    13     2     3    1
    14     3     4    2
    15     4     5    1
    16     5     6    1
    17     6     7    1
    18     7     8   ar
    19     8     9   ar
    20     9    10   ar
    21    10    26    1
    22    26    27    1
    23    27    28   ar
    24    28    29   ar
    25    29    30   ar
    26    30    31   ar
    27    10    11   ar
    28    11    12   ar
    29    15    16   ar
    30    16    17   ar
    31    17    13   ar
    32     5     1    1
    33    12     7   ar
    34    12     4    1
    35    31    27   ar
@<TRIPOS>MOLECULE
*****
 31 35 0 0 0
SMALL
GASTEIGER

@<TRIPOS>ATOM
      1 C         142.1082  139.4013  162.2084 C.2     1  UNL1        0.0866
      2 N         143.2274  140.2170  162.7845 N.2     1  UNL1       -0.1523
      3 N         142.8891  140.5246  164.2132 N.2     1  UNL1       -0.1523
      4 C         141.5607  139.8991  164.5199 C.2     1  UNL1        0.0858
      5 C         141.0781  139.2049  163.2809 C.3     1  UNL1        0.0883
      6 C         139.7497  138.5794  163.5877 C.3     1  UNL1        0.0384
      7 C         139.4113  138.8870  165.0163 C.ar    1  UNL1       -0.0202
      8 C         138.2286  138.5298  165.8669 C.ar    1  UNL1       -0.0045
      9 C         138.1652  138.9883  167.2937 C.ar    1  UNL1       -0.0027
     10 C         139.2845  139.8039  167.8699 C.ar    1  UNL1        0.0022
     11 C         140.4672  140.1611  167.0192 C.ar    1  UNL1       -0.0014
     12 C         140.5306  139.7027  165.5924 C.ar    1  UNL1        0.0115
     13 C         141.2294  138.3579  158.5746 C.ar    1  UNL1        0.0710
     14 C         140.8775  139.0404  159.8631 C.ar    1  UNL1        0.0165
     15 C         142.0323  138.8746  160.8059 C.ar    1  UNL1        0.0233
     16 C         143.0980  138.0896  160.1001 C.ar    1  UNL1        0.0373
     17 S         142.6017  137.7703  158.7210 S.2     1  UNL1       -0.0780
     18 C         139.4934  138.1964  156.1334 C.1     1  UNL1       -0.0534
     19 C         140.3614  138.2771  157.3539 C.1     1  UNL1       -0.0554
     20 C         138.6253  138.1156  154.9127 C.3     1  UNL1        0.2182
     21 O         137.1646  137.8032  155.0504 O.3     1  UNL1       -0.3374
     22 C         136.1503  138.6138  154.2995 C.3     1  UNL1        0.1755
     23 C         135.3016  139.6138  155.0272 C.3     1  UNL1        0.1743
     24 C         133.0292  139.6906  156.2844 C.3     1  UNL1        0.1742
     25 O         134.4315  139.1716  156.1663 O.3     1  UNL1       -0.3484
     26 C         139.2211  140.2623  169.2967 C.3     1  UNL1        0.1556
     27 N         140.1275  141.3583  169.7734 N.ar    1  UNL1       -0.2255
     28 C         141.1221  141.2560  170.8916 C.ar    1  UNL1        0.1975
     29 N         141.8078  142.5834  171.0248 N.ar    1  UNL1       -0.2007
     30 C         141.2370  143.5061  169.9890 C.ar    1  UNL1        0.2210
     31 N         140.1986  142.7489  169.2156 N.ar    1  UNL1       -0.1448
@<TRIPOS>BOND
     1    24    25    1
     2    25    23    1
     3    23    22    1
     4    22    21    1
     5    21    20    1
     6    20    18    1
     7    18    19    3
     8    19    13    1
     9    13    14   ar
    10    14    15   ar
    11    15     1    1
    12     1     2    2
    13     2     3    1
    14     3     4    2
    15     4     5    1
    16     5     6    1
    17     6     7    1
    18     7     8   ar
    19     8     9   ar
    20     9    10   ar
    21    10    26    1
    22    26    27    1
    23    27    28   ar
    24    28    29   ar
    25    29    30   ar
    26    30    31   ar
    27    10    11   ar
    28    11    12   ar
    29    15    16   ar
    30    16    17   ar
    31    17    13   ar
    32     5     1    1
    33    12     7   ar
    34    12     4    1
    35    31    27   ar
@<TRIPOS>MOLECULE
*****
 31 35 0 0 0
SMALL
GASTEIGER

@<TRIPOS>ATOM
      1 C         138.4272  140.6512  159.8113 C.2     1  UNL1        0.0866
      2 N         137.9385  141.9958  160.2621 N.2     1  UNL1       -0.1523
      3 N         137.7883  141.9583  161.7541 N.2     1  UNL1       -0.1523
      4 C         138.1842  140.5903  162.2255 C.2     1  UNL1        0.0858
      5 C         138.5790  139.7826  161.0248 C.3     1  UNL1        0.0883
      6 C         138.9749  138.4147  161.4962 C.3     1  UNL1        0.0384
      7 C         138.8248  138.3771  162.9882 C.ar    1  UNL1       -0.0202
      8 C         139.0699  137.2921  163.9945 C.ar    1  UNL1       -0.0045
      9 C         138.8263  137.5518  165.4516 C.ar    1  UNL1       -0.0027
     10 C         138.3376  138.8965  165.9023 C.ar    1  UNL1        0.0022
     11 C         138.0925  139.9814  164.8960 C.ar    1  UNL1       -0.0014
     12 C         138.3361  139.7217  163.4389 C.ar    1  UNL1        0.0115
     13 C         139.6534  139.1196  156.4623 C.ar    1  UNL1        0.0710
     14 C         139.6892  139.1934  157.9601 C.ar    1  UNL1        0.0165
     15 C         138.7137  140.2463  158.3957 C.ar    1  UNL1        0.0233
     16 C         138.0749  140.8233  157.1672 C.ar    1  UNL1        0.0373
     17 S         138.6557  140.1269  155.9723 S.2     1  UNL1       -0.0780
     18 C         141.2897  137.2804  154.7479 C.1     1  UNL1       -0.0534
     19 C         140.4715  138.2000  155.6051 C.1     1  UNL1       -0.0554
     20 C         142.1080  136.3608  153.8907 C.3     1  UNL1        0.2182
     21 O         142.8291  135.2009  154.5108 O.3     1  UNL1       -0.3374
     22 C         143.7620  135.4272  155.6634 C.3     1  UNL1        0.1755
     23 C         143.4602  134.8221  157.0024 C.3     1  UNL1        0.1743
     24 C         143.0352  132.2632  156.8576 C.3     1  UNL1        0.1742
     25 O         143.8858  133.4156  157.3030 O.3     1  UNL1       -0.3484
     26 C         138.0941  139.1561  167.3595 C.3     1  UNL1        0.1556
     27 N         139.1818  139.7441  168.2086 N.ar    1  UNL1       -0.2255
     28 C         140.4955  140.2746  167.7158 C.ar    1  UNL1        0.1975
     29 N         141.2725  140.7632  168.9022 N.ar    1  UNL1       -0.2007
     30 C         140.4390  140.5347  170.1283 C.ar    1  UNL1        0.2210
     31 N         139.1469  139.9049  169.6996 N.ar    1  UNL1       -0.1448
@<TRIPOS>BOND
     1    24    25    1
     2    25    23    1
     3    23    22    1
     4    22    21    1
     5    21    20    1
     6    20    18    1
     7    18    19    3
     8    19    13    1
     9    13    14   ar
    10    14    15   ar
    11    15     1    1
    12     1     2    2
    13     2     3    1
    14     3     4    2
    15     4     5    1
    16     5     6    1
    17     6     7    1
    18     7     8   ar
    19     8     9   ar
    20     9    10   ar
    21    10    26    1
    22    26    27    1
    23    27    28   ar
    24    28    29   ar
    25    29    30   ar
    26    30    31   ar
    27    10    11   ar
    28    11    12   ar
    29    15    16   ar
    30    16    17   ar
    31    17    13   ar
    32     5     1    1
    33    12     7   ar
    34    12     4    1
    35    31    27   ar
@<TRIPOS>MOLECULE
*****
 31 35 0 0 0
SMALL
GASTEIGER

@<TRIPOS>ATOM
      1 C         142.4281  143.3590  161.4791 C.2     1  UNL1        0.0866
      2 N         142.9756  144.6429  162.0284 N.2     1  UNL1       -0.1523
      3 N         143.1518  144.4760  163.5087 N.2     1  UNL1       -0.1523
      4 C         142.7133  143.0888  163.8741 C.2     1  UNL1        0.0858
      5 C         142.2660  142.3985  162.6198 C.3     1  UNL1        0.0883
      6 C         141.8275  141.0114  162.9853 C.3     1  UNL1        0.0384
      7 C         142.0038  140.8444  164.4655 C.ar    1  UNL1       -0.0202
      8 C         141.7365  139.6891  165.3841 C.ar    1  UNL1       -0.0045
      9 C         142.0166  139.8178  166.8520 C.ar    1  UNL1       -0.0027
     10 C         142.5641  141.1017  167.4014 C.ar    1  UNL1        0.0022
     11 C         142.8314  142.2570  166.4828 C.ar    1  UNL1       -0.0014
     12 C         142.5512  142.1284  165.0149 C.ar    1  UNL1        0.0115
     13 C         140.9626  142.3180  158.0390 C.ar    1  UNL1        0.0710
     14 C         140.8828  142.3681  159.5361 C.ar    1  UNL1        0.0165
     15 C         142.1003  143.0838  160.0414 C.ar    1  UNL1        0.0233
     16 C         142.9326  143.4761  158.8567 C.ar    1  UNL1        0.0373
     17 S         142.2293  143.0028  157.6191 S.2     1  UNL1       -0.0780
     18 C         138.9430  141.0678  156.2066 C.1     1  UNL1       -0.0534
     19 C         139.9528  141.6929  157.1228 C.1     1  UNL1       -0.0554
     20 C         137.9332  140.4428  155.2903 C.3     1  UNL1        0.2182
     21 O         136.6777  139.8455  155.8534 O.3     1  UNL1       -0.3374
     22 C         135.5668  140.7381  156.3215 C.3     1  UNL1        0.1755
     23 C         134.1699  140.2029  156.4303 C.3     1  UNL1        0.1743
     24 C         132.7640  138.6239  157.9403 C.3     1  UNL1        0.1742
     25 O         133.9305  138.8464  157.0240 O.3     1  UNL1       -0.3484
     26 C         142.8442  141.2304  168.8694 C.3     1  UNL1        0.1556
     27 N         141.7778  141.7362  169.7950 N.ar    1  UNL1       -0.2255
     28 C         141.6745  141.4465  171.2631 C.ar    1  UNL1        0.1975
     29 N         140.4602  142.1519  171.7904 N.ar    1  UNL1       -0.2007
     30 C         139.8131  142.8776  170.6482 C.ar    1  UNL1        0.2210
     31 N         140.6274  142.6207  169.4149 N.ar    1  UNL1       -0.1448
@<TRIPOS>BOND
     1    24    25    1
     2    25    23    1
     3    23    22    1
     4    22    21    1
     5    21    20    1
     6    20    18    1
     7    18    19    3
     8    19    13    1
     9    13    14   ar
    10    14    15   ar
    11    15     1    1
    12     1     2    2
    13     2     3    1
    14     3     4    2
    15     4     5    1
    16     5     6    1
    17     6     7    1
    18     7     8   ar
    19     8     9   ar
    20     9    10   ar
    21    10    26    1
    22    26    27    1
    23    27    28   ar
    24    28    29   ar
    25    29    30   ar
    26    30    31   ar
    27    10    11   ar
    28    11    12   ar
    29    15    16   ar
    30    16    17   ar
    31    17    13   ar
    32     5     1    1
    33    12     7   ar
    34    12     4    1
    35    31    27   ar
