@<TRIPOS>MOLECULE
*****
 45 48 0 0 0
SMALL
GASTEIGER

@<TRIPOS>ATOM
      1 C         141.4171  140.8658  162.2669 C.3     1  UNL1        0.0808
      2 C         141.4658  140.6144  163.7450 C.ar    1  UNL1        0.0375
      3 C         141.1027  141.7089  164.7043 C.ar    1  UNL1        0.0023
      4 C         141.1515  141.4575  166.1822 C.ar    1  UNL1        0.0181
      5 C         140.7884  142.5520  167.1415 C.ar    1  UNL1        0.0082
      6 C         140.8371  142.3006  168.6195 C.ar    1  UNL1        0.0347
      7 BR        140.4740  143.3951  169.5788 Br      1  UNL1       -0.0490
      8 C         141.2489  140.9548  169.1382 C.ar    1  UNL1        0.0082
      9 C         141.6120  139.8603  168.1789 C.ar    1  UNL1        0.0197
     10 C         141.5633  140.1116  166.7009 C.ar    1  UNL1        0.0844
     11 N         141.9264  139.0172  165.7416 N.ar    1  UNL1       -0.2119
     12 C         141.8777  139.2686  164.2636 C.ar    1  UNL1        0.2211
     13 O         142.2408  138.1741  163.3043 O.3     1  UNL1       -0.4563
     14 C         141.0883  137.2141  163.3170 C.3     1  UNL1        0.2542
     15 C         140.2780  140.3290  161.4520 C.ar    1  UNL1        0.0245
     16 C         138.8635  140.5795  161.8838 C.ar    1  UNL1        0.0200
     17 C         137.7243  140.0427  161.0689 C.ar    1  UNL1        0.1019
     18 N         137.9997  139.2554  159.8221 N.ar    1  UNL1       -0.2076
     19 C         139.4142  139.0049  159.3903 C.ar    1  UNL1        0.2598
     20 C         140.5533  139.5418  160.2053 C.ar    1  UNL1        0.1879
     21 O         139.6895  138.2177  158.1435 O.3     1  UNL1       -0.4541
     22 C         139.6964  138.9036  156.8096 C.3     1  UNL1        0.2543
     23 O         141.9678  139.2914  159.7735 O.3     1  UNL1       -0.4670
     24 C         142.5454  137.9098  159.8615 C.3     1  UNL1        0.2527
     25 C         142.5076  141.6541  161.6039 C.3     1  UNL1        0.1162
     26 O         143.4792  140.5465  161.8853 O.3     1  UNL1       -0.3820
     27 H         144.3535  140.7884  161.5417 H       1  UNL1        0.2107
     28 C         140.2427  144.2430  159.6245 C.ar    1  UNL1        0.2271
     29 C         141.2143  143.1354  159.9059 C.ar    1  UNL1        0.0559
     30 C         141.5359  142.7616  161.3225 C.ar    1  UNL1        0.0117
     31 C         140.8857  143.4954  162.4578 C.ar    1  UNL1        0.0559
     32 C         139.9140  144.6030  162.1764 C.ar    1  UNL1        0.2270
     33 N         139.5925  144.9767  160.7598 N.ar    1  UNL1       -0.1767
     34 O         139.9211  144.6167  158.2078 O.3     1  UNL1       -0.4602
     35 C         142.0430  145.8599  157.3699 C.3     1  UNL1        0.0512
     36 C         140.5593  145.8241  157.5874 C.3     1  UNL1        0.2072
     37 O         139.2639  145.3367  163.3118 O.3     1  UNL1       -0.4640
     38 C         138.5193  144.5755  164.3682 C.3     1  UNL1        0.1678
     39 C         138.5363  145.0539  165.7898 C.3     1  UNL1        0.0473
     40 C         137.7576  143.3359  164.0030 C.3     1  UNL1        0.0473
     41 C         143.5980  142.4423  160.9409 C.3     1  UNL1        0.0491
     42 C         144.8701  142.7324  161.6811 C.3     1  UNL1        0.0750
     43 N         144.8785  142.7464  163.1810 N.3     1  UNL1       -0.2702
     44 C         144.1204  143.8051  163.9254 C.3     1  UNL1        0.0897
     45 C         145.6451  141.7015  163.9365 C.3     1  UNL1        0.0897
@<TRIPOS>BOND
     1    35    36    1
     2    36    34    1
     3    34    28    1
     4    28    29   ar
     5    29    30   ar
     6    30    25    1
     7    25    26    1
     8    25    41    1
     9    41    42    1
    10    42    43    1
    11    43    44    1
    12    43    45    1
    13    25     1    1
    14     1     2    1
    15     2     3   ar
    16     3     4   ar
    17     4     5   ar
    18     5     6   ar
    19     6     7    1
    20     6     8   ar
    21     8     9   ar
    22     9    10   ar
    23    10    11   ar
    24    11    12   ar
    25    12    13    1
    26    13    14    1
    27     1    15    1
    28    15    16   ar
    29    16    17   ar
    30    17    18   ar
    31    18    19   ar
    32    19    21    1
    33    21    22    1
    34    19    20   ar
    35    20    23    1
    36    23    24    1
    37    30    31   ar
    38    31    32   ar
    39    32    37    1
    40    37    38    1
    41    38    39    1
    42    38    40    1
    43    32    33   ar
    44    33    28   ar
    45    12     2   ar
    46    20    15   ar
    47    10     4   ar
    48    26    27    1
@<TRIPOS>MOLECULE
*****
 45 48 0 0 0
SMALL
GASTEIGER

@<TRIPOS>ATOM
      1 C         141.6935  141.9022  162.5084 C.3     1  UNL1        0.0808
      2 C         142.0812  141.9922  163.9547 C.ar    1  UNL1        0.0375
      3 C         141.0739  141.6819  165.0219 C.ar    1  UNL1        0.0023
      4 C         141.4615  141.7718  166.4681 C.ar    1  UNL1        0.0181
      5 C         140.4542  141.4616  167.5353 C.ar    1  UNL1        0.0082
      6 C         140.8419  141.5515  168.9816 C.ar    1  UNL1        0.0347
      7 BR        139.8345  141.2412  170.0488 Br      1  UNL1       -0.0490
      8 C         142.2369  141.9517  169.3606 C.ar    1  UNL1        0.0082
      9 C         143.2443  142.2620  168.2934 C.ar    1  UNL1        0.0197
     10 C         142.8566  142.1721  166.8472 C.ar    1  UNL1        0.0844
     11 N         143.8640  142.4823  165.7799 N.ar    1  UNL1       -0.2119
     12 C         143.4763  142.3924  164.3337 C.ar    1  UNL1        0.2211
     13 O         144.4836  142.7026  163.2664 O.3     1  UNL1       -0.4563
     14 C         145.6401  141.7785  163.5083 C.3     1  UNL1        0.2542
     15 C         142.5001  141.0580  161.5668 C.ar    1  UNL1        0.0245
     16 C         142.6742  139.5925  161.8351 C.ar    1  UNL1        0.0200
     17 C         143.4808  138.7483  160.8935 C.ar    1  UNL1        0.1019
     18 N         144.1133  139.3695  159.6835 N.ar    1  UNL1       -0.2076
     19 C         143.9391  140.8350  159.4151 C.ar    1  UNL1        0.2598
     20 C         143.1325  141.6792  160.3568 C.ar    1  UNL1        0.1879
     21 O         144.5716  141.4563  158.2052 O.3     1  UNL1       -0.4541
     22 C         144.0971  141.0782  156.8334 C.3     1  UNL1        0.2543
     23 O         142.9584  143.1447  160.0885 O.3     1  UNL1       -0.4670
     24 C         142.1093  143.6010  158.9391 C.3     1  UNL1        0.2527
     25 C         140.4992  142.6565  162.0038 C.3     1  UNL1        0.1162
     26 O         141.1556  143.9505  162.3845 O.3     1  UNL1       -0.3820
     27 H         140.5689  144.6893  162.1589 H       1  UNL1        0.2107
     28 C         138.9170  139.7605  159.7994 C.ar    1  UNL1        0.2271
     29 C         139.5734  141.0544  160.1801 C.ar    1  UNL1        0.0559
     30 C         139.8428  141.3626  161.6231 C.ar    1  UNL1        0.0117
     31 C         139.4558  140.3769  162.6855 C.ar    1  UNL1        0.0559
     32 C         138.7994  139.0830  162.3048 C.ar    1  UNL1        0.2270
     33 N         138.5300  138.7748  160.8618 N.ar    1  UNL1       -0.1767
     34 O         138.6476  139.4523  158.3563 O.3     1  UNL1       -0.4602
     35 C         140.9839  138.3581  158.0491 C.3     1  UNL1        0.0512
     36 C         139.7679  139.0111  157.4618 C.3     1  UNL1        0.2072
     37 O         138.4125  138.0973  163.3672 O.3     1  UNL1       -0.4640
     38 C         139.1020  138.1208  164.6991 C.3     1  UNL1        0.1678
     39 C         138.3937  138.6723  165.9008 C.3     1  UNL1        0.0473
     40 C         140.5001  137.5928  164.8293 C.3     1  UNL1        0.0473
     41 C         139.3049  143.4109  161.4992 C.3     1  UNL1        0.0491
     42 C         138.5772  144.3576  162.4072 C.3     1  UNL1        0.0750
     43 N         138.3800  144.0081  163.8525 N.3     1  UNL1       -0.2702
     44 C         137.5376  142.8258  164.2300 C.3     1  UNL1        0.0897
     45 C         139.0251  144.8410  164.9203 C.3     1  UNL1        0.0897
@<TRIPOS>BOND
     1    35    36    1
     2    36    34    1
     3    34    28    1
     4    28    29   ar
     5    29    30   ar
     6    30    25    1
     7    25    26    1
     8    25    41    1
     9    41    42    1
    10    42    43    1
    11    43    44    1
    12    43    45    1
    13    25     1    1
    14     1     2    1
    15     2     3   ar
    16     3     4   ar
    17     4     5   ar
    18     5     6   ar
    19     6     7    1
    20     6     8   ar
    21     8     9   ar
    22     9    10   ar
    23    10    11   ar
    24    11    12   ar
    25    12    13    1
    26    13    14    1
    27     1    15    1
    28    15    16   ar
    29    16    17   ar
    30    17    18   ar
    31    18    19   ar
    32    19    21    1
    33    21    22    1
    34    19    20   ar
    35    20    23    1
    36    23    24    1
    37    30    31   ar
    38    31    32   ar
    39    32    37    1
    40    37    38    1
    41    38    39    1
    42    38    40    1
    43    32    33   ar
    44    33    28   ar
    45    12     2   ar
    46    20    15   ar
    47    10     4   ar
    48    26    27    1
@<TRIPOS>MOLECULE
*****
 45 48 0 0 0
SMALL
GASTEIGER

@<TRIPOS>ATOM
      1 C         141.7941  142.0748  163.2296 C.3     1  UNL1        0.0808
      2 C         142.1925  142.1678  164.6728 C.ar    1  UNL1        0.0375
      3 C         141.3670  141.4870  165.7240 C.ar    1  UNL1        0.0023
      4 C         141.7653  141.5799  167.1671 C.ar    1  UNL1        0.0181
      5 C         140.9398  140.8991  168.2184 C.ar    1  UNL1        0.0082
      6 C         141.3382  140.9921  169.6616 C.ar    1  UNL1        0.0347
      7 BR        140.5127  140.3113  170.7128 Br      1  UNL1       -0.0490
      8 C         142.5620  141.7658  170.0535 C.ar    1  UNL1        0.0082
      9 C         143.3875  142.4466  169.0022 C.ar    1  UNL1        0.0197
     10 C         142.9892  142.3537  167.5591 C.ar    1  UNL1        0.0844
     11 N         143.8147  143.0345  166.5079 N.ar    1  UNL1       -0.2119
     12 C         143.4163  142.9415  165.0647 C.ar    1  UNL1        0.2211
     13 O         144.2418  143.6223  164.0134 O.3     1  UNL1       -0.4563
     14 C         143.8716  145.0747  164.0735 C.3     1  UNL1        0.2542
     15 C         141.1076  143.2311  162.5650 C.ar    1  UNL1        0.0245
     16 C         139.8255  143.7673  163.1297 C.ar    1  UNL1        0.0200
     17 C         139.1390  144.9236  162.4651 C.ar    1  UNL1        0.1019
     18 N         139.7345  145.5437  161.2359 N.ar    1  UNL1       -0.2076
     19 C         141.0166  145.0075  160.6713 C.ar    1  UNL1        0.2598
     20 C         141.7031  143.8511  161.3359 C.ar    1  UNL1        0.1879
     21 O         141.6121  145.6275  159.4422 O.3     1  UNL1       -0.4541
     22 C         140.8597  145.5931  158.1450 C.3     1  UNL1        0.2543
     23 O         142.9852  143.3149  160.7713 O.3     1  UNL1       -0.4670
     24 C         142.9881  142.6282  159.4377 C.3     1  UNL1        0.2527
     25 C         142.0823  140.8255  162.4510 C.3     1  UNL1        0.1162
     26 O         143.5533  141.0999  162.5552 O.3     1  UNL1       -0.3820
     27 H         144.0461  140.3974  162.1029 H       1  UNL1        0.2107
     28 C         138.3526  139.9332  163.4719 C.ar    1  UNL1        0.2271
     29 C         139.8236  140.2076  163.5761 C.ar    1  UNL1        0.0559
     30 C         140.6113  140.5511  162.3468 C.ar    1  UNL1        0.0117
     31 C         139.9281  140.6202  161.0132 C.ar    1  UNL1        0.0559
     32 C         138.4571  140.3458  160.9090 C.ar    1  UNL1        0.2270
     33 N         137.6693  140.0023  162.1384 N.ar    1  UNL1       -0.1767
     34 O         137.5648  139.5897  164.7014 O.3     1  UNL1       -0.4602
     35 C         137.6597  138.4940  167.0552 C.3     1  UNL1        0.0512
     36 C         138.2691  139.3794  166.0090 C.3     1  UNL1        0.2072
     37 O         137.7739  140.4149  159.5754 O.3     1  UNL1       -0.4640
     38 C         138.4408  141.1112  158.4263 C.3     1  UNL1        0.1678
     39 C         138.4533  142.6098  158.3627 C.3     1  UNL1        0.0473
     40 C         139.0951  140.3089  157.3408 C.3     1  UNL1        0.0473
     41 C         142.3705  139.5762  161.6724 C.3     1  UNL1        0.0491
     42 C         142.9837  138.3906  162.3568 C.3     1  UNL1        0.0750
     43 N         142.7384  138.1586  163.8184 N.3     1  UNL1       -0.2702
     44 C         143.6651  138.7518  164.8378 C.3     1  UNL1        0.0897
     45 C         141.5663  137.3334  164.2604 C.3     1  UNL1        0.0897
@<TRIPOS>BOND
     1    35    36    1
     2    36    34    1
     3    34    28    1
     4    28    29   ar
     5    29    30   ar
     6    30    25    1
     7    25    26    1
     8    25    41    1
     9    41    42    1
    10    42    43    1
    11    43    44    1
    12    43    45    1
    13    25     1    1
    14     1     2    1
    15     2     3   ar
    16     3     4   ar
    17     4     5   ar
    18     5     6   ar
    19     6     7    1
    20     6     8   ar
    21     8     9   ar
    22     9    10   ar
    23    10    11   ar
    24    11    12   ar
    25    12    13    1
    26    13    14    1
    27     1    15    1
    28    15    16   ar
    29    16    17   ar
    30    17    18   ar
    31    18    19   ar
    32    19    21    1
    33    21    22    1
    34    19    20   ar
    35    20    23    1
    36    23    24    1
    37    30    31   ar
    38    31    32   ar
    39    32    37    1
    40    37    38    1
    41    38    39    1
    42    38    40    1
    43    32    33   ar
    44    33    28   ar
    45    12     2   ar
    46    20    15   ar
    47    10     4   ar
    48    26    27    1
@<TRIPOS>MOLECULE
*****
 45 48 0 0 0
SMALL
GASTEIGER

@<TRIPOS>ATOM
      1 C         141.5212  140.4906  162.8911 C.3     1  UNL1        0.0808
      2 C         141.8653  140.6338  164.3441 C.ar    1  UNL1        0.0375
      3 C         141.1147  141.6107  165.1999 C.ar    1  UNL1        0.0023
      4 C         141.4588  141.7539  166.6528 C.ar    1  UNL1        0.0181
      5 C         140.7082  142.7308  167.5085 C.ar    1  UNL1        0.0082
      6 C         141.0523  142.8740  168.9615 C.ar    1  UNL1        0.0347
      7 BR        140.3017  143.8509  169.8173 Br      1  UNL1       -0.0490
      8 C         142.1469  142.0403  169.5587 C.ar    1  UNL1        0.0082
      9 C         142.8975  141.0634  168.7030 C.ar    1  UNL1        0.0197
     10 C         142.5535  140.9202  167.2501 C.ar    1  UNL1        0.0844
     11 N         143.3041  139.9433  166.3943 N.ar    1  UNL1       -0.2119
     12 C         142.9600  139.8001  164.9413 C.ar    1  UNL1        0.2211
     13 O         143.7106  138.8232  164.0856 O.3     1  UNL1       -0.4563
     14 C         145.0433  139.4539  163.8100 C.3     1  UNL1        0.2542
     15 C         142.3500  141.1858  161.8520 C.ar    1  UNL1        0.0245
     16 C         142.5318  142.6736  161.9098 C.ar    1  UNL1        0.0200
     17 C         143.3606  143.3688  160.8707 C.ar    1  UNL1        0.1019
     18 N         144.0077  142.5762  159.7738 N.ar    1  UNL1       -0.2076
     19 C         143.8259  141.0883  159.7161 C.ar    1  UNL1        0.2598
     20 C         142.9971  140.3931  160.7552 C.ar    1  UNL1        0.1879
     21 O         144.4730  140.2957  158.6193 O.3     1  UNL1       -0.4541
     22 C         144.7731  140.9455  157.3011 C.3     1  UNL1        0.2543
     23 O         142.8153  138.9053  160.6975 O.3     1  UNL1       -0.4670
     24 C         142.0137  138.2901  159.5889 C.3     1  UNL1        0.2527
     25 C         140.3483  139.6521  162.4773 C.3     1  UNL1        0.1162
     26 O         141.0517  138.4235  162.9728 O.3     1  UNL1       -0.3820
     27 H         140.4882  137.6475  162.8273 H       1  UNL1        0.2107
     28 C         138.7400  142.3161  160.0142 C.ar    1  UNL1        0.2271
     29 C         139.4434  141.0874  160.5098 C.ar    1  UNL1        0.0559
     30 C         139.6449  140.8808  161.9817 C.ar    1  UNL1        0.0117
     31 C         139.1429  141.9029  162.9581 C.ar    1  UNL1        0.0559
     32 C         138.4395  143.1315  162.4626 C.ar    1  UNL1        0.2270
     33 N         138.2380  143.3382  160.9906 N.ar    1  UNL1       -0.1767
     34 O         138.5385  142.5227  158.5422 O.3     1  UNL1       -0.4602
     35 C         140.9611  143.1756  157.8679 C.3     1  UNL1        0.0512
     36 C         139.7017  142.4054  157.6023 C.3     1  UNL1        0.2072
     37 O         137.9375  144.1536  163.4391 O.3     1  UNL1       -0.4640
     38 C         138.8724  144.7465  164.4512 C.3     1  UNL1        0.1678
     39 C         140.3022  145.0143  164.0852 C.3     1  UNL1        0.0473
     40 C         138.3775  145.0714  165.8295 C.3     1  UNL1        0.0473
     41 C         139.1753  138.8137  162.0634 C.3     1  UNL1        0.0491
     42 C         138.1256  138.4441  163.0692 C.3     1  UNL1        0.0750
     43 N         138.4610  138.4257  164.5311 N.3     1  UNL1       -0.2702
     44 C         139.1118  137.2172  165.1361 C.3     1  UNL1        0.0897
     45 C         138.1456  139.6158  165.3880 C.3     1  UNL1        0.0897
@<TRIPOS>BOND
     1    35    36    1
     2    36    34    1
     3    34    28    1
     4    28    29   ar
     5    29    30   ar
     6    30    25    1
     7    25    26    1
     8    25    41    1
     9    41    42    1
    10    42    43    1
    11    43    44    1
    12    43    45    1
    13    25     1    1
    14     1     2    1
    15     2     3   ar
    16     3     4   ar
    17     4     5   ar
    18     5     6   ar
    19     6     7    1
    20     6     8   ar
    21     8     9   ar
    22     9    10   ar
    23    10    11   ar
    24    11    12   ar
    25    12    13    1
    26    13    14    1
    27     1    15    1
    28    15    16   ar
    29    16    17   ar
    30    17    18   ar
    31    18    19   ar
    32    19    21    1
    33    21    22    1
    34    19    20   ar
    35    20    23    1
    36    23    24    1
    37    30    31   ar
    38    31    32   ar
    39    32    37    1
    40    37    38    1
    41    38    39    1
    42    38    40    1
    43    32    33   ar
    44    33    28   ar
    45    12     2   ar
    46    20    15   ar
    47    10     4   ar
    48    26    27    1
@<TRIPOS>MOLECULE
*****
 45 48 0 0 0
SMALL
GASTEIGER

@<TRIPOS>ATOM
      1 C         141.5088  142.4455  162.4375 C.3     1  UNL1        0.0808
      2 C         141.9597  142.3779  163.8666 C.ar    1  UNL1        0.0375
      3 C         140.9897  141.9852  164.9413 C.ar    1  UNL1        0.0023
      4 C         141.4406  141.9176  166.3703 C.ar    1  UNL1        0.0181
      5 C         140.4706  141.5249  167.4450 C.ar    1  UNL1        0.0082
      6 C         140.9215  141.4573  168.8740 C.ar    1  UNL1        0.0347
      7 BR        139.9515  141.0646  169.9487 Br      1  UNL1       -0.0490
      8 C         142.3423  141.7823  169.2284 C.ar    1  UNL1        0.0082
      9 C         143.3123  142.1750  168.1537 C.ar    1  UNL1        0.0197
     10 C         142.8615  142.2426  166.7247 C.ar    1  UNL1        0.0844
     11 N         143.8314  142.6353  165.6500 N.ar    1  UNL1       -0.2119
     12 C         143.3805  142.7029  164.2209 C.ar    1  UNL1        0.2211
     13 O         144.3505  143.0956  163.1462 O.3     1  UNL1       -0.4563
     14 C         145.4850  142.1185  163.2361 C.3     1  UNL1        0.2542
     15 C         142.3640  141.8609  161.3527 C.ar    1  UNL1        0.0245
     16 C         142.7901  142.7116  160.1931 C.ar    1  UNL1        0.0200
     17 C         143.6453  142.1270  159.1084 C.ar    1  UNL1        0.1019
     18 N         144.0745  140.6916  159.1832 N.ar    1  UNL1       -0.2076
     19 C         143.6484  139.8409  160.3428 C.ar    1  UNL1        0.2598
     20 C         142.7931  140.4256  161.4276 C.ar    1  UNL1        0.1879
     21 O         144.0775  138.4056  160.4176 O.3     1  UNL1       -0.4541
     22 C         143.1037  137.3135  160.0875 C.3     1  UNL1        0.2543
     23 O         142.3670  139.5749  162.5872 O.3     1  UNL1       -0.4670
     24 C         143.3913  139.0528  163.5507 C.3     1  UNL1        0.2527
     25 C         140.2026  143.0978  162.0933 C.3     1  UNL1        0.1162
     26 O         140.7681  144.4329  162.4775 O.3     1  UNL1       -0.3820
     27 H         140.0936  145.1184  162.3504 H       1  UNL1        0.2107
     28 C         138.8163  140.1083  159.8817 C.ar    1  UNL1        0.2271
     29 C         139.3818  141.4435  160.2659 C.ar    1  UNL1        0.0559
     30 C         139.6371  141.7626  161.7091 C.ar    1  UNL1        0.0117
     31 C         139.3269  140.7467  162.7681 C.ar    1  UNL1        0.0559
     32 C         138.7614  139.4115  162.3840 C.ar    1  UNL1        0.2270
     33 N         138.5061  139.0924  160.9408 N.ar    1  UNL1       -0.1767
     34 O         138.5610  139.7891  158.4384 O.3     1  UNL1       -0.4602
     35 C         136.9098  141.0782  156.9016 C.3     1  UNL1        0.0512
     36 C         138.2889  140.8953  157.4625 C.3     1  UNL1        0.2072
     37 O         138.4513  138.3956  163.4431 O.3     1  UNL1       -0.4640
     38 C         138.9663  138.5861  164.8389 C.3     1  UNL1        0.1678
     39 C         140.3533  138.1389  165.1942 C.3     1  UNL1        0.0473
     40 C         138.0943  139.2240  165.8796 C.3     1  UNL1        0.0473
     41 C         138.8964  143.7501  161.7491 C.3     1  UNL1        0.0491
     42 C         138.1771  144.5754  162.7745 C.3     1  UNL1        0.0750
     43 N         138.1114  144.1111  164.1993 N.3     1  UNL1       -0.2702
     44 C         138.7440  144.9303  165.2850 C.3     1  UNL1        0.0897
     45 C         137.4131  142.8276  164.5384 C.3     1  UNL1        0.0897
@<TRIPOS>BOND
     1    35    36    1
     2    36    34    1
     3    34    28    1
     4    28    29   ar
     5    29    30   ar
     6    30    25    1
     7    25    26    1
     8    25    41    1
     9    41    42    1
    10    42    43    1
    11    43    44    1
    12    43    45    1
    13    25     1    1
    14     1     2    1
    15     2     3   ar
    16     3     4   ar
    17     4     5   ar
    18     5     6   ar
    19     6     7    1
    20     6     8   ar
    21     8     9   ar
    22     9    10   ar
    23    10    11   ar
    24    11    12   ar
    25    12    13    1
    26    13    14    1
    27     1    15    1
    28    15    16   ar
    29    16    17   ar
    30    17    18   ar
    31    18    19   ar
    32    19    21    1
    33    21    22    1
    34    19    20   ar
    35    20    23    1
    36    23    24    1
    37    30    31   ar
    38    31    32   ar
    39    32    37    1
    40    37    38    1
    41    38    39    1
    42    38    40    1
    43    32    33   ar
    44    33    28   ar
    45    12     2   ar
    46    20    15   ar
    47    10     4   ar
    48    26    27    1
@<TRIPOS>MOLECULE
*****
 45 48 0 0 0
SMALL
GASTEIGER

@<TRIPOS>ATOM
      1 C         141.6852  142.0089  162.5270 C.3     1  UNL1        0.0808
      2 C         142.0517  142.0678  163.9804 C.ar    1  UNL1        0.0375
      3 C         141.0356  141.7123  165.0251 C.ar    1  UNL1        0.0023
      4 C         141.4020  141.7713  166.4784 C.ar    1  UNL1        0.0181
      5 C         140.3860  141.4158  167.5231 C.ar    1  UNL1        0.0082
      6 C         140.7525  141.4748  168.9765 C.ar    1  UNL1        0.0347
      7 BR        139.7364  141.1192  170.0211 Br      1  UNL1       -0.0490
      8 C         142.1349  141.8892  169.3851 C.ar    1  UNL1        0.0082
      9 C         143.1509  142.2447  168.3405 C.ar    1  UNL1        0.0197
     10 C         142.7845  142.1858  166.8872 C.ar    1  UNL1        0.0844
     11 N         143.8006  142.5413  165.8425 N.ar    1  UNL1       -0.2119
     12 C         143.4341  142.4823  164.3891 C.ar    1  UNL1        0.2211
     13 O         144.4501  142.8378  163.3445 O.3     1  UNL1       -0.4563
     14 C         145.5753  141.8603  163.5126 C.3     1  UNL1        0.2542
     15 C         142.5610  141.2657  161.5623 C.ar    1  UNL1        0.0245
     16 C         142.8253  139.8029  161.7629 C.ar    1  UNL1        0.0200
     17 C         143.7010  139.0597  160.7982 C.ar    1  UNL1        0.1019
     18 N         144.3125  139.7794  159.6328 N.ar    1  UNL1       -0.2076
     19 C         144.0482  141.2423  159.4321 C.ar    1  UNL1        0.2598
     20 C         143.1724  141.9854  160.3969 C.ar    1  UNL1        0.1879
     21 O         144.6597  141.9620  158.2667 O.3     1  UNL1       -0.4541
     22 C         145.1349  141.1881  157.0729 C.3     1  UNL1        0.2543
     23 O         142.9081  143.4482  160.1963 O.3     1  UNL1       -0.4670
     24 C         142.0627  143.9066  159.0450 C.3     1  UNL1        0.2527
     25 C         140.4430  142.6931  162.0384 C.3     1  UNL1        0.1162
     26 O         141.0244  144.0218  162.4210 O.3     1  UNL1       -0.3820
     27 H         140.3923  144.7254  162.2055 H       1  UNL1        0.2107
     28 C         138.8586  139.0668  162.3382 C.ar    1  UNL1        0.2271
     29 C         139.4400  140.3955  162.7207 C.ar    1  UNL1        0.0559
     30 C         139.8616  141.3643  161.6559 C.ar    1  UNL1        0.0117
     31 C         139.7017  141.0043  160.2086 C.ar    1  UNL1        0.0559
     32 C         139.1203  139.6755  159.8261 C.ar    1  UNL1        0.2270
     33 N         138.6988  138.7067  160.8908 N.ar    1  UNL1       -0.1767
     34 O         138.4371  138.0980  163.4030 O.3     1  UNL1       -0.4602
     35 C         138.3712  138.4152  165.9808 C.3     1  UNL1        0.0512
     36 C         139.1350  138.0926  164.7308 C.3     1  UNL1        0.2072
     37 O         138.9604  139.3155  158.3787 O.3     1  UNL1       -0.4640
     38 C         139.9453  138.3943  157.7217 C.3     1  UNL1        0.1678
     39 C         141.3578  138.3268  158.2217 C.3     1  UNL1        0.0473
     40 C         139.5175  137.5407  156.5648 C.3     1  UNL1        0.0473
     41 C         139.2007  143.3773  161.5498 C.3     1  UNL1        0.0491
     42 C         138.4526  144.3100  162.4556 C.3     1  UNL1        0.0750
     43 N         138.3101  143.9864  163.9133 N.3     1  UNL1       -0.2702
     44 C         138.9526  144.8672  164.9435 C.3     1  UNL1        0.0897
     45 C         137.5251  142.7818  164.3408 C.3     1  UNL1        0.0897
@<TRIPOS>BOND
     1    35    36    1
     2    36    34    1
     3    34    28    1
     4    28    29   ar
     5    29    30   ar
     6    30    25    1
     7    25    26    1
     8    25    41    1
     9    41    42    1
    10    42    43    1
    11    43    44    1
    12    43    45    1
    13    25     1    1
    14     1     2    1
    15     2     3   ar
    16     3     4   ar
    17     4     5   ar
    18     5     6   ar
    19     6     7    1
    20     6     8   ar
    21     8     9   ar
    22     9    10   ar
    23    10    11   ar
    24    11    12   ar
    25    12    13    1
    26    13    14    1
    27     1    15    1
    28    15    16   ar
    29    16    17   ar
    30    17    18   ar
    31    18    19   ar
    32    19    21    1
    33    21    22    1
    34    19    20   ar
    35    20    23    1
    36    23    24    1
    37    30    31   ar
    38    31    32   ar
    39    32    37    1
    40    37    38    1
    41    38    39    1
    42    38    40    1
    43    32    33   ar
    44    33    28   ar
    45    12     2   ar
    46    20    15   ar
    47    10     4   ar
    48    26    27    1
@<TRIPOS>MOLECULE
*****
 45 48 0 0 0
SMALL
GASTEIGER

@<TRIPOS>ATOM
      1 C         141.0132  141.4911  158.6172 C.3     1  UNL1        0.0808
      2 C         141.5695  142.3175  159.7388 C.ar    1  UNL1        0.0375
      3 C         141.7558  141.7096  161.0974 C.ar    1  UNL1        0.0023
      4 C         142.3121  142.5359  162.2188 C.ar    1  UNL1        0.0181
      5 C         142.4984  141.9280  163.5774 C.ar    1  UNL1        0.0082
      6 C         143.0547  142.7544  164.6989 C.ar    1  UNL1        0.0347
      7 BR        143.2410  142.1465  166.0575 Br      1  UNL1       -0.0490
      8 C         143.4247  144.1885  164.4618 C.ar    1  UNL1        0.0082
      9 C         143.2384  144.7964  163.1032 C.ar    1  UNL1        0.0197
     10 C         142.6821  143.9701  161.9818 C.ar    1  UNL1        0.0844
     11 N         142.4958  144.5780  160.6232 N.ar    1  UNL1       -0.2119
     12 C         141.9395  143.7516  159.5016 C.ar    1  UNL1        0.2211
     13 O         141.7532  144.3595  158.1430 O.3     1  UNL1       -0.4563
     14 C         140.7528  145.4635  158.3177 C.3     1  UNL1        0.2542
     15 C         141.7600  140.2837  158.1333 C.ar    1  UNL1        0.0245
     16 C         141.2702  138.9094  158.4817 C.ar    1  UNL1        0.0200
     17 C         142.0170  137.7019  157.9978 C.ar    1  UNL1        0.1019
     18 N         143.2538  137.8687  157.1655 N.ar    1  UNL1       -0.2076
     19 C         143.7436  139.2430  156.8171 C.ar    1  UNL1        0.2598
     20 C         142.9967  140.4505  157.3011 C.ar    1  UNL1        0.1879
     21 O         144.9803  139.4098  155.9848 O.3     1  UNL1       -0.4541
     22 C         144.8672  139.5742  154.4982 C.3     1  UNL1        0.2543
     23 O         143.4865  141.8248  156.9527 O.3     1  UNL1       -0.4670
     24 C         144.7066  142.3793  157.6266 C.3     1  UNL1        0.2527
     25 C         139.7100  141.8723  157.9797 C.3     1  UNL1        0.1162
     26 O         140.4057  142.0474  156.6624 O.3     1  UNL1       -0.3820
     27 H         139.7611  142.3175  155.9897 H       1  UNL1        0.2107
     28 C         137.9011  140.1540  161.0660 C.ar    1  UNL1        0.2271
     29 C         138.5968  140.3291  159.7487 C.ar    1  UNL1        0.0559
     30 C         139.0143  141.6972  159.2970 C.ar    1  UNL1        0.0117
     31 C         138.7362  142.8901  160.1627 C.ar    1  UNL1        0.0559
     32 C         138.0405  142.7150  161.4800 C.ar    1  UNL1        0.2270
     33 N         137.6229  141.3470  161.9317 N.ar    1  UNL1       -0.1767
     34 O         137.4835  138.7859  161.5176 O.3     1  UNL1       -0.4602
     35 C         139.8452  137.9167  162.1631 C.3     1  UNL1        0.0512
     36 C         138.3715  137.9942  162.4313 C.3     1  UNL1        0.2072
     37 O         137.7623  143.9081  162.3457 O.3     1  UNL1       -0.4640
     38 C         138.8997  144.7087  162.9074 C.3     1  UNL1        0.1678
     39 C         139.4676  145.8557  162.1253 C.3     1  UNL1        0.0473
     40 C         139.4692  144.3622  164.2511 C.3     1  UNL1        0.0473
     41 C         138.4068  142.2535  157.3421 C.3     1  UNL1        0.0491
     42 C         137.5996  141.2220  156.6110 C.3     1  UNL1        0.0750
     43 N         138.1991  140.4849  155.4503 N.3     1  UNL1       -0.2702
     44 C         138.2036  141.1097  154.0866 C.3     1  UNL1        0.0897
     45 C         138.7940  139.1230  155.6532 C.3     1  UNL1        0.0897
@<TRIPOS>BOND
     1    35    36    1
     2    36    34    1
     3    34    28    1
     4    28    29   ar
     5    29    30   ar
     6    30    25    1
     7    25    26    1
     8    25    41    1
     9    41    42    1
    10    42    43    1
    11    43    44    1
    12    43    45    1
    13    25     1    1
    14     1     2    1
    15     2     3   ar
    16     3     4   ar
    17     4     5   ar
    18     5     6   ar
    19     6     7    1
    20     6     8   ar
    21     8     9   ar
    22     9    10   ar
    23    10    11   ar
    24    11    12   ar
    25    12    13    1
    26    13    14    1
    27     1    15    1
    28    15    16   ar
    29    16    17   ar
    30    17    18   ar
    31    18    19   ar
    32    19    21    1
    33    21    22    1
    34    19    20   ar
    35    20    23    1
    36    23    24    1
    37    30    31   ar
    38    31    32   ar
    39    32    37    1
    40    37    38    1
    41    38    39    1
    42    38    40    1
    43    32    33   ar
    44    33    28   ar
    45    12     2   ar
    46    20    15   ar
    47    10     4   ar
    48    26    27    1
@<TRIPOS>MOLECULE
*****
 45 48 0 0 0
SMALL
GASTEIGER

@<TRIPOS>ATOM
      1 C         140.8035  141.4476  159.0748 C.3     1  UNL1        0.0808
      2 C         141.4066  142.3422  160.1170 C.ar    1  UNL1        0.0375
      3 C         141.7235  141.7995  161.4790 C.ar    1  UNL1        0.0023
      4 C         142.3265  142.6941  162.5212 C.ar    1  UNL1        0.0181
      5 C         142.6434  142.1514  163.8832 C.ar    1  UNL1        0.0082
      6 C         143.2464  143.0460  164.9253 C.ar    1  UNL1        0.0347
      7 BR        143.5633  142.5033  166.2873 Br      1  UNL1       -0.0490
      8 C         143.5325  144.4833  164.6055 C.ar    1  UNL1        0.0082
      9 C         143.2157  145.0260  163.2435 C.ar    1  UNL1        0.0197
     10 C         142.6127  144.1314  162.2013 C.ar    1  UNL1        0.0844
     11 N         142.2958  144.6741  160.8393 N.ar    1  UNL1       -0.2119
     12 C         141.6927  143.7795  159.7971 C.ar    1  UNL1        0.2211
     13 O         141.3758  144.3222  158.4351 O.3     1  UNL1       -0.4563
     14 C         140.3024  145.3499  158.6391 C.3     1  UNL1        0.2542
     15 C         141.5821  140.2787  158.5482 C.ar    1  UNL1        0.0245
     16 C         141.2180  138.8851  158.9669 C.ar    1  UNL1        0.0200
     17 C         141.9966  137.7162  158.4404 C.ar    1  UNL1        0.1019
     18 N         143.1394  137.9408  157.4950 N.ar    1  UNL1       -0.2076
     19 C         143.5035  139.3344  157.0763 C.ar    1  UNL1        0.2598
     20 C         142.7249  140.5034  157.6029 C.ar    1  UNL1        0.1879
     21 O         144.6463  139.5591  156.1310 O.3     1  UNL1       -0.4541
     22 C         144.8848  138.6011  155.0017 C.3     1  UNL1        0.2543
     23 O         143.0890  141.8969  157.1842 O.3     1  UNL1       -0.4670
     24 C         144.3354  142.5388  157.7177 C.3     1  UNL1        0.2527
     25 C         139.4219  141.7220  158.5593 C.3     1  UNL1        0.1162
     26 O         139.9769  141.9268  157.1809 O.3     1  UNL1       -0.3820
     27 H         139.2541  142.1383  156.5695 H       1  UNL1        0.2107
     28 C         137.9041  142.4949  162.1438 C.ar    1  UNL1        0.2271
     29 C         138.4591  142.6997  160.7654 C.ar    1  UNL1        0.0559
     30 C         138.8669  141.5171  159.9377 C.ar    1  UNL1        0.0117
     31 C         138.7198  140.1297  160.4885 C.ar    1  UNL1        0.0559
     32 C         138.1648  139.9249  161.8669 C.ar    1  UNL1        0.2270
     33 N         137.7569  141.1074  162.6946 N.ar    1  UNL1       -0.1767
     34 O         137.4962  143.6775  162.9715 O.3     1  UNL1       -0.4602
     35 C         139.5488  144.4546  164.3618 C.3     1  UNL1        0.0512
     36 C         138.5045  144.7316  163.3214 C.3     1  UNL1        0.2072
     37 O         138.0176  138.5373  162.4176 O.3     1  UNL1       -0.4640
     38 C         139.1081  137.9455  163.2606 C.3     1  UNL1        0.1678
     39 C         140.4372  137.6190  162.6467 C.3     1  UNL1        0.0473
     40 C         138.8694  137.6801  164.7175 C.3     1  UNL1        0.0473
     41 C         138.0402  141.9963  158.0438 C.3     1  UNL1        0.0491
     42 C         137.4145  141.0686  157.0449 C.3     1  UNL1        0.0750
     43 N         136.3413  141.5704  156.1249 N.3     1  UNL1       -0.2702
     44 C         135.0990  140.7582  155.9081 C.3     1  UNL1        0.0897
     45 C         136.5103  142.8846  155.4217 C.3     1  UNL1        0.0897
@<TRIPOS>BOND
     1    35    36    1
     2    36    34    1
     3    34    28    1
     4    28    29   ar
     5    29    30   ar
     6    30    25    1
     7    25    26    1
     8    25    41    1
     9    41    42    1
    10    42    43    1
    11    43    44    1
    12    43    45    1
    13    25     1    1
    14     1     2    1
    15     2     3   ar
    16     3     4   ar
    17     4     5   ar
    18     5     6   ar
    19     6     7    1
    20     6     8   ar
    21     8     9   ar
    22     9    10   ar
    23    10    11   ar
    24    11    12   ar
    25    12    13    1
    26    13    14    1
    27     1    15    1
    28    15    16   ar
    29    16    17   ar
    30    17    18   ar
    31    18    19   ar
    32    19    21    1
    33    21    22    1
    34    19    20   ar
    35    20    23    1
    36    23    24    1
    37    30    31   ar
    38    31    32   ar
    39    32    37    1
    40    37    38    1
    41    38    39    1
    42    38    40    1
    43    32    33   ar
    44    33    28   ar
    45    12     2   ar
    46    20    15   ar
    47    10     4   ar
    48    26    27    1
@<TRIPOS>MOLECULE
*****
 45 48 0 0 0
SMALL
GASTEIGER

@<TRIPOS>ATOM
      1 C         140.6478  140.6743  162.5271 C.3     1  UNL1        0.0808
      2 C         140.5182  140.4711  164.0077 C.ar    1  UNL1        0.0375
      3 C         140.6090  141.6454  164.9366 C.ar    1  UNL1        0.0023
      4 C         140.4794  141.4423  166.4171 C.ar    1  UNL1        0.0181
      5 C         140.5702  142.6166  167.3460 C.ar    1  UNL1        0.0082
      6 C         140.4406  142.4134  168.8266 C.ar    1  UNL1        0.0347
      7 BR        140.5314  143.5877  169.7555 Br      1  UNL1       -0.0490
      8 C         140.2202  141.0361  169.3782 C.ar    1  UNL1        0.0082
      9 C         140.1293  139.8618  168.4493 C.ar    1  UNL1        0.0197
     10 C         140.2589  140.0649  166.9688 C.ar    1  UNL1        0.0844
     11 N         140.1681  138.8906  166.0399 N.ar    1  UNL1       -0.2119
     12 C         140.2977  139.0938  164.5593 C.ar    1  UNL1        0.2211
     13 O         140.2069  137.9195  163.6304 O.3     1  UNL1       -0.4563
     14 C         138.7432  137.6898  163.3963 C.3     1  UNL1        0.2542
     15 C         141.6104  139.8383  161.7369 C.ar    1  UNL1        0.0245
     16 C         143.0404  139.7249  162.1752 C.ar    1  UNL1        0.0200
     17 C         144.0030  138.8890  161.3849 C.ar    1  UNL1        0.1019
     18 N         143.5356  138.1664  160.1562 N.ar    1  UNL1       -0.2076
     19 C         142.1055  138.2799  159.7179 C.ar    1  UNL1        0.2598
     20 C         141.1429  139.1159  160.5083 C.ar    1  UNL1        0.1879
     21 O         141.6381  137.5574  158.4893 O.3     1  UNL1       -0.4541
     22 C         142.3295  137.7836  157.1776 C.3     1  UNL1        0.2543
     23 O         139.7129  139.2293  160.0700 O.3     1  UNL1       -0.4670
     24 C         139.3815  139.8495  158.7450 C.3     1  UNL1        0.2527
     25 C         139.8148  141.7133  161.8369 C.3     1  UNL1        0.1162
     26 O         138.5678  140.9966  162.2630 O.3     1  UNL1       -0.3820
     27 H         137.7911  141.4757  161.9340 H       1  UNL1        0.2107
     28 C         142.5508  143.4317  159.5323 C.ar    1  UNL1        0.2271
     29 C         141.3039  142.7150  159.9583 C.ar    1  UNL1        0.0559
     30 C         141.0617  142.4300  161.4109 C.ar    1  UNL1        0.0117
     31 C         142.0665  142.8618  162.4375 C.ar    1  UNL1        0.0559
     32 C         143.3134  143.5784  162.0115 C.ar    1  UNL1        0.2270
     33 N         143.5556  143.8634  160.5589 N.ar    1  UNL1       -0.1767
     34 O         142.7929  143.7166  158.0796 O.3     1  UNL1       -0.4602
     35 C         141.1410  145.7215  158.0399 C.3     1  UNL1        0.0512
     36 C         142.3454  145.0195  157.4862 C.3     1  UNL1        0.2072
     37 O         144.3183  144.0102  163.0382 O.3     1  UNL1       -0.4640
     38 C         144.7215  143.0695  164.1349 C.3     1  UNL1        0.1678
     39 C         145.5885  141.8851  163.8260 C.3     1  UNL1        0.0473
     40 C         144.2578  143.3134  165.5404 C.3     1  UNL1        0.0473
     41 C         138.9817  142.7524  161.1467 C.3     1  UNL1        0.0491
     42 C         138.2269  143.7664  161.9543 C.3     1  UNL1        0.0750
     43 N         138.9697  144.8375  162.6967 N.3     1  UNL1       -0.2702
     44 C         138.9928  144.8324  164.1965 C.3     1  UNL1        0.0897
     45 C         139.6894  145.9138  161.9392 C.3     1  UNL1        0.0897
@<TRIPOS>BOND
     1    35    36    1
     2    36    34    1
     3    34    28    1
     4    28    29   ar
     5    29    30   ar
     6    30    25    1
     7    25    26    1
     8    25    41    1
     9    41    42    1
    10    42    43    1
    11    43    44    1
    12    43    45    1
    13    25     1    1
    14     1     2    1
    15     2     3   ar
    16     3     4   ar
    17     4     5   ar
    18     5     6   ar
    19     6     7    1
    20     6     8   ar
    21     8     9   ar
    22     9    10   ar
    23    10    11   ar
    24    11    12   ar
    25    12    13    1
    26    13    14    1
    27     1    15    1
    28    15    16   ar
    29    16    17   ar
    30    17    18   ar
    31    18    19   ar
    32    19    21    1
    33    21    22    1
    34    19    20   ar
    35    20    23    1
    36    23    24    1
    37    30    31   ar
    38    31    32   ar
    39    32    37    1
    40    37    38    1
    41    38    39    1
    42    38    40    1
    43    32    33   ar
    44    33    28   ar
    45    12     2   ar
    46    20    15   ar
    47    10     4   ar
    48    26    27    1
