@<TRIPOS>MOLECULE
*****
 28 30 0 0 0
SMALL
GASTEIGER

@<TRIPOS>ATOM
      1 C         139.6433  141.1596  165.9287 C.ar    1  UNL1        0.1409
      2 N         139.8670  140.9818  167.4013 N.ar    1  UNL1       -0.1986
      3 C         139.1565  139.8872  168.1410 C.ar    1  UNL1        0.2181
      4 N         138.2223  138.9706  167.4083 N.ar    1  UNL1       -0.2120
      5 C         137.9985  139.1484  165.9358 C.ar    1  UNL1        0.1091
      6 C         138.7090  140.2429  165.1960 C.ar    1  UNL1        0.1040
      7 C         138.4852  140.4208  163.7235 C.2     1  UNL1        0.2470
      8 N         137.1329  140.8219  163.2134 N.am    1  UNL1       -0.3252
      9 O         139.6139  140.1975  162.7610 O.2     1  UNL1       -0.2702
     10 H         136.3921  140.9684  163.8451 H       1  UNL1        0.1453
     11 H         136.9860  140.9386  162.2470 H       1  UNL1        0.1453
     12 N         140.3538  142.2541  165.1890 N.pl3   1  UNL1       -0.2977
     13 H         139.8500  143.0333  164.8599 H       1  UNL1        0.1536
     14 C         144.6303  139.3828  164.5051 C.3     1  UNL1        0.0311
     15 C         143.9701  140.7257  164.6087 C.ar    1  UNL1       -0.0206
     16 C         144.7879  141.9759  164.4739 C.ar    1  UNL1       -0.0042
     17 C         144.1277  143.3188  164.5775 C.ar    1  UNL1        0.0009
     18 C         142.6497  143.4115  164.8158 C.ar    1  UNL1        0.0146
     19 C         141.8319  142.1614  164.9506 C.ar    1  UNL1        0.0491
     20 C         142.4921  140.8185  164.8470 C.ar    1  UNL1        0.0104
     21 N         139.3802  139.7094  169.6135 N.pl3   1  UNL1       -0.3032
     22 H         138.6560  139.3626  170.1832 H       1  UNL1        0.1496
     23 C         140.7075  140.0598  170.2182 C.3     1  UNL1        0.0888
     24 C         142.0213  139.4106  169.8979 C.3     1  UNL1        0.0381
     25 C         143.0798  140.0705  170.7309 C.3     1  UNL1        0.0704
     26 N         142.4202  141.1277  171.5662 N.3     1  UNL1       -0.2960
     27 C         140.9541  141.1210  171.2492 C.3     1  UNL1        0.0884
     28 H         142.8178  142.0408  171.3460 H       1  UNL1        0.1233
@<TRIPOS>BOND
     1    14    15    1
     2    15    16   ar
     3    16    17   ar
     4    17    18   ar
     5    18    19   ar
     6    19    12    1
     7    12     1    1
     8     1     2   ar
     9     2     3   ar
    10     3    21    1
    11    23    21    1
    12    23    24    1
    13    24    25    1
    14    25    26    1
    15    26    27    1
    16     3     4   ar
    17     4     5   ar
    18     5     6   ar
    19     6     7    1
    20     7     8   am
    21     7     9    2
    22    19    20   ar
    23    20    15   ar
    24     6     1   ar
    25    27    23    1
    26    12    13    1
    27    21    22    1
    28    26    28    1
    29     8    10    1
    30     8    11    1
@<TRIPOS>MOLECULE
*****
 28 30 0 0 0
SMALL
GASTEIGER

@<TRIPOS>ATOM
      1 C         139.8412  140.2189  165.7726 C.ar    1  UNL1        0.1409
      2 N         139.9768  140.4887  167.2418 N.ar    1  UNL1       -0.1986
      3 C         139.0727  139.7962  168.2182 C.ar    1  UNL1        0.2181
      4 N         138.0330  138.8340  167.7252 N.ar    1  UNL1       -0.2120
      5 C         137.8973  138.5643  166.2559 C.ar    1  UNL1        0.1091
      6 C         138.8014  139.2567  165.2796 C.ar    1  UNL1        0.1040
      7 C         138.6657  138.9869  163.8103 C.2     1  UNL1        0.2470
      8 N         138.9272  137.6110  163.2731 N.am    1  UNL1       -0.3252
      9 O         138.2685  140.0930  162.8782 O.2     1  UNL1       -0.2702
     10 H         139.1879  136.8851  163.8849 H       1  UNL1        0.1453
     11 H         138.8382  137.4340  162.3088 H       1  UNL1        0.1453
     12 N         140.7452  140.9113  164.7963 N.pl3   1  UNL1       -0.2977
     13 H         140.3977  141.6437  164.2376 H       1  UNL1        0.1536
     14 C         145.5927  141.8586  163.1825 C.3     1  UNL1        0.0311
     15 C         144.6025  140.9615  163.8642 C.ar    1  UNL1       -0.0206
     16 C         145.0458  139.6411  164.4208 C.ar    1  UNL1       -0.0042
     17 C         144.0556  138.7440  165.1025 C.ar    1  UNL1        0.0009
     18 C         142.6221  139.1674  165.2277 C.ar    1  UNL1        0.0146
     19 C         142.1788  140.4879  164.6711 C.ar    1  UNL1        0.0491
     20 C         143.1690  141.3849  163.9894 C.ar    1  UNL1        0.0104
     21 N         139.2084  140.0660  169.6874 N.pl3   1  UNL1       -0.3032
     22 H         138.4069  140.0968  170.2583 H       1  UNL1        0.1496
     23 C         140.5652  140.2890  170.2869 C.3     1  UNL1        0.0888
     24 C         141.7896  139.4616  170.0294 C.3     1  UNL1        0.0381
     25 C         142.9170  140.0397  170.8324 C.3     1  UNL1        0.0704
     26 N         142.3893  141.2243  171.5862 N.3     1  UNL1       -0.2960
     27 C         140.9359  141.3784  171.2491 C.3     1  UNL1        0.0884
     28 H         142.8992  142.0642  171.3120 H       1  UNL1        0.1233
@<TRIPOS>BOND
     1    14    15    1
     2    15    16   ar
     3    16    17   ar
     4    17    18   ar
     5    18    19   ar
     6    19    12    1
     7    12     1    1
     8     1     2   ar
     9     2     3   ar
    10     3    21    1
    11    23    21    1
    12    23    24    1
    13    24    25    1
    14    25    26    1
    15    26    27    1
    16     3     4   ar
    17     4     5   ar
    18     5     6   ar
    19     6     7    1
    20     7     8   am
    21     7     9    2
    22    19    20   ar
    23    20    15   ar
    24     6     1   ar
    25    27    23    1
    26    12    13    1
    27    21    22    1
    28    26    28    1
    29     8    10    1
    30     8    11    1
@<TRIPOS>MOLECULE
*****
 28 30 0 0 0
SMALL
GASTEIGER

@<TRIPOS>ATOM
      1 C         141.8781  140.8987  167.2418 C.ar    1  UNL1        0.1409
      2 N         140.6875  140.3766  166.4935 N.ar    1  UNL1       -0.1986
      3 C         139.5120  139.8255  167.2450 C.ar    1  UNL1        0.2181
      4 N         139.5270  139.7966  168.7446 N.ar    1  UNL1       -0.2120
      5 C         140.7176  140.3188  169.4929 C.ar    1  UNL1        0.1091
      6 C         141.8931  140.8698  168.7415 C.ar    1  UNL1        0.1040
      7 C         143.0837  141.3920  169.4898 C.2     1  UNL1        0.2470
      8 N         143.6142  140.6397  170.6741 N.am    1  UNL1       -0.3252
      9 O         143.7437  142.6665  169.0538 O.2     1  UNL1       -0.2702
     10 H         143.1810  139.8032  170.9603 H       1  UNL1        0.1453
     11 H         144.3956  140.9824  171.1652 H       1  UNL1        0.1453
     12 N         143.0535  141.4498  166.4905 N.pl3   1  UNL1       -0.2977
     13 H         143.9369  141.0240  166.5776 H       1  UNL1        0.1536
     14 C         139.9613  144.7844  163.9768 C.3     1  UNL1        0.0311
     15 C         141.3370  144.3169  164.3496 C.ar    1  UNL1       -0.0206
     16 C         142.5422  145.0490  163.8384 C.ar    1  UNL1       -0.0042
     17 C         143.9178  144.5815  164.2112 C.ar    1  UNL1        0.0009
     18 C         144.0883  143.3818  165.0952 C.ar    1  UNL1        0.0146
     19 C         142.8831  142.6496  165.6064 C.ar    1  UNL1        0.0491
     20 C         141.5075  143.1171  165.2336 C.ar    1  UNL1        0.0104
     21 N         138.3214  139.3034  166.4967 N.pl3   1  UNL1       -0.3032
     22 H         137.4554  139.2071  166.9549 H       1  UNL1        0.1496
     23 C         138.4503  138.9280  165.0501 C.3     1  UNL1        0.0888
     24 C         138.9620  137.6212  164.5206 C.3     1  UNL1        0.0381
     25 C         138.9181  137.6789  163.0223 C.3     1  UNL1        0.0704
     26 N         138.3793  139.0216  162.6259 N.3     1  UNL1       -0.2960
     27 C         138.0901  139.7935  163.8791 C.3     1  UNL1        0.0884
     28 H         137.5219  138.9047  162.0858 H       1  UNL1        0.1233
@<TRIPOS>BOND
     1    14    15    1
     2    15    16   ar
     3    16    17   ar
     4    17    18   ar
     5    18    19   ar
     6    19    12    1
     7    12     1    1
     8     1     2   ar
     9     2     3   ar
    10     3    21    1
    11    23    21    1
    12    23    24    1
    13    24    25    1
    14    25    26    1
    15    26    27    1
    16     3     4   ar
    17     4     5   ar
    18     5     6   ar
    19     6     7    1
    20     7     8   am
    21     7     9    2
    22    19    20   ar
    23    20    15   ar
    24     6     1   ar
    25    27    23    1
    26    12    13    1
    27    21    22    1
    28    26    28    1
    29     8    10    1
    30     8    11    1
@<TRIPOS>MOLECULE
*****
 28 30 0 0 0
SMALL
GASTEIGER

@<TRIPOS>ATOM
      1 C         140.3584  140.1862  166.3416 C.ar    1  UNL1        0.1409
      2 N         141.0290  140.9490  165.2377 N.ar    1  UNL1       -0.1986
      3 C         140.2710  141.2787  163.9859 C.ar    1  UNL1        0.2181
      4 N         138.8425  140.8457  163.8381 N.ar    1  UNL1       -0.2120
      5 C         138.1719  140.0830  164.9420 C.ar    1  UNL1        0.1091
      6 C         138.9298  139.7532  166.1937 C.ar    1  UNL1        0.1040
      7 C         138.2592  138.9905  167.2975 C.2     1  UNL1        0.2470
      8 N         137.4410  137.7743  166.9792 N.am    1  UNL1       -0.3252
      9 O         138.4069  139.4439  168.7198 O.2     1  UNL1       -0.2702
     10 H         137.3440  137.4767  166.0458 H       1  UNL1        0.1453
     11 H         137.0008  137.2737  167.7038 H       1  UNL1        0.1453
     12 N         141.1163  139.8565  167.5933 N.pl3   1  UNL1       -0.2977
     13 H         141.2856  138.9167  167.8331 H       1  UNL1        0.1536
     14 C         140.3103  144.3472  170.0800 C.3     1  UNL1        0.0311
     15 C         141.2132  143.2038  169.7230 C.ar    1  UNL1       -0.0206
     16 C         142.6161  143.1625  170.2523 C.ar    1  UNL1       -0.0042
     17 C         143.5191  142.0191  169.8953 C.ar    1  UNL1        0.0009
     18 C         143.0191  140.9172  169.0089 C.ar    1  UNL1        0.0146
     19 C         141.6163  140.9585  168.4796 C.ar    1  UNL1        0.0491
     20 C         140.7133  142.1018  168.8367 C.ar    1  UNL1        0.0104
     21 N         140.9416  142.0415  162.8821 N.pl3   1  UNL1       -0.3032
     22 H         141.4860  141.5648  162.2145 H       1  UNL1        0.1496
     23 C         140.7826  143.5306  162.7953 C.3     1  UNL1        0.0888
     24 C         139.7100  144.2604  162.0425 C.3     1  UNL1        0.0381
     25 C         139.9329  145.7321  162.2280 C.3     1  UNL1        0.0704
     26 N         141.1433  145.9118  163.0956 N.3     1  UNL1       -0.2960
     27 C         141.6685  144.5512  163.4462 C.3     1  UNL1        0.0884
     28 H         140.8882  146.4141  163.9460 H       1  UNL1        0.1233
@<TRIPOS>BOND
     1    14    15    1
     2    15    16   ar
     3    16    17   ar
     4    17    18   ar
     5    18    19   ar
     6    19    12    1
     7    12     1    1
     8     1     2   ar
     9     2     3   ar
    10     3    21    1
    11    23    21    1
    12    23    24    1
    13    24    25    1
    14    25    26    1
    15    26    27    1
    16     3     4   ar
    17     4     5   ar
    18     5     6   ar
    19     6     7    1
    20     7     8   am
    21     7     9    2
    22    19    20   ar
    23    20    15   ar
    24     6     1   ar
    25    27    23    1
    26    12    13    1
    27    21    22    1
    28    26    28    1
    29     8    10    1
    30     8    11    1
@<TRIPOS>MOLECULE
*****
 28 30 0 0 0
SMALL
GASTEIGER

@<TRIPOS>ATOM
      1 C         140.2905  141.7092  167.2017 C.ar    1  UNL1        0.1409
      2 N         139.7244  140.6592  166.2923 N.ar    1  UNL1       -0.1986
      3 C         138.9628  139.5013  166.8662 C.ar    1  UNL1        0.2181
      4 N         138.7672  139.3936  168.3495 N.ar    1  UNL1       -0.2120
      5 C         139.3333  140.4436  169.2589 C.ar    1  UNL1        0.1091
      6 C         140.0950  141.6014  168.6850 C.ar    1  UNL1        0.1040
      7 C         140.6611  142.6514  169.5944 C.2     1  UNL1        0.2470
      8 N         139.7727  143.3441  170.5847 N.am    1  UNL1       -0.3252
      9 O         142.1157  143.0087  169.5134 O.2     1  UNL1       -0.2702
     10 H         138.8180  143.1096  170.6379 H       1  UNL1        0.1453
     11 H         140.1442  144.0332  171.1816 H       1  UNL1        0.1453
     12 N         141.0522  142.8670  166.6278 N.pl3   1  UNL1       -0.2977
     13 H         141.8741  143.1824  167.0685 H       1  UNL1        0.1536
     14 C         141.8911  144.5091  161.7698 C.3     1  UNL1        0.0311
     15 C         140.9811  144.3652  162.9535 C.ar    1  UNL1       -0.0206
     16 C         139.5805  144.8985  162.8919 C.ar    1  UNL1       -0.0042
     17 C         138.6704  144.7547  164.0756 C.ar    1  UNL1        0.0009
     18 C         139.1610  144.0775  165.3209 C.ar    1  UNL1        0.0146
     19 C         140.5616  143.5442  165.3825 C.ar    1  UNL1        0.0491
     20 C         141.4716  143.6880  164.1988 C.ar    1  UNL1        0.0104
     21 N         138.3966  138.4513  165.9568 N.pl3   1  UNL1       -0.3032
     22 H         137.5089  138.0676  166.1406 H       1  UNL1        0.1496
     23 C         139.1832  137.9860  164.7673 C.3     1  UNL1        0.0888
     24 C         140.6098  137.5225  164.7802 C.3     1  UNL1        0.0381
     25 C         140.9896  137.1526  163.3770 C.3     1  UNL1        0.0704
     26 N         139.7978  137.3875  162.4970 N.3     1  UNL1       -0.2960
     27 C         138.6814  137.9026  163.3562 C.3     1  UNL1        0.0884
     28 H         139.5176  136.5130  162.0530 H       1  UNL1        0.1233
@<TRIPOS>BOND
     1    14    15    1
     2    15    16   ar
     3    16    17   ar
     4    17    18   ar
     5    18    19   ar
     6    19    12    1
     7    12     1    1
     8     1     2   ar
     9     2     3   ar
    10     3    21    1
    11    23    21    1
    12    23    24    1
    13    24    25    1
    14    25    26    1
    15    26    27    1
    16     3     4   ar
    17     4     5   ar
    18     5     6   ar
    19     6     7    1
    20     7     8   am
    21     7     9    2
    22    19    20   ar
    23    20    15   ar
    24     6     1   ar
    25    27    23    1
    26    12    13    1
    27    21    22    1
    28    26    28    1
    29     8    10    1
    30     8    11    1
@<TRIPOS>MOLECULE
*****
 28 30 0 0 0
SMALL
GASTEIGER

@<TRIPOS>ATOM
      1 C         140.3150  139.6295  166.8923 C.ar    1  UNL1        0.1409
      2 N         141.4512  139.2028  166.0108 N.ar    1  UNL1       -0.1986
      3 C         142.8284  139.0477  166.5847 C.ar    1  UNL1        0.2181
      4 N         143.0694  139.3193  168.0401 N.ar    1  UNL1       -0.2120
      5 C         141.9332  139.7461  168.9216 C.ar    1  UNL1        0.1091
      6 C         140.5560  139.9012  168.3477 C.ar    1  UNL1        0.1040
      7 C         139.4199  140.3279  169.2292 C.2     1  UNL1        0.2470
      8 N         139.5580  141.5457  170.0939 N.am    1  UNL1       -0.3252
      9 O         138.1455  139.5368  169.2459 O.2     1  UNL1       -0.2702
     10 H         140.3944  142.0650  170.0829 H       1  UNL1        0.1453
     11 H         138.8123  141.8258  170.6725 H       1  UNL1        0.1453
     12 N         138.9379  139.7846  166.3184 N.pl3   1  UNL1       -0.2977
     13 H         138.2131  139.1849  166.6089 H       1  UNL1        0.1536
     14 C         139.4029  144.7112  164.7332 C.3     1  UNL1        0.0311
     15 C         138.8974  143.3168  164.5094 C.ar    1  UNL1       -0.0206
     16 C         138.1190  142.9912  163.2693 C.ar    1  UNL1       -0.0042
     17 C         137.6135  141.5968  163.0455 C.ar    1  UNL1        0.0009
     18 C         137.8864  140.5279  164.0618 C.ar    1  UNL1        0.0146
     19 C         138.6649  140.8535  165.3020 C.ar    1  UNL1        0.0491
     20 C         139.1704  142.2479  165.5258 C.ar    1  UNL1        0.0104
     21 N         143.9645  138.6209  165.7033 N.pl3   1  UNL1       -0.3032
     22 H         144.5082  137.8368  165.9459 H       1  UNL1        0.1496
     23 C         144.2724  139.3889  164.4520 C.3     1  UNL1        0.0888
     24 C         144.8494  140.7719  164.3859 C.3     1  UNL1        0.0381
     25 C         144.9910  141.1465  162.9403 C.3     1  UNL1        0.0704
     26 N         144.5014  139.9950  162.1131 N.3     1  UNL1       -0.2960
     27 C         144.0573  138.9088  163.0474 C.3     1  UNL1        0.0884
     28 H         145.2546  139.6522  161.5168 H       1  UNL1        0.1233
@<TRIPOS>BOND
     1    14    15    1
     2    15    16   ar
     3    16    17   ar
     4    17    18   ar
     5    18    19   ar
     6    19    12    1
     7    12     1    1
     8     1     2   ar
     9     2     3   ar
    10     3    21    1
    11    23    21    1
    12    23    24    1
    13    24    25    1
    14    25    26    1
    15    26    27    1
    16     3     4   ar
    17     4     5   ar
    18     5     6   ar
    19     6     7    1
    20     7     8   am
    21     7     9    2
    22    19    20   ar
    23    20    15   ar
    24     6     1   ar
    25    27    23    1
    26    12    13    1
    27    21    22    1
    28    26    28    1
    29     8    10    1
    30     8    11    1
@<TRIPOS>MOLECULE
*****
 28 30 0 0 0
SMALL
GASTEIGER

@<TRIPOS>ATOM
      1 C         141.3990  139.7226  165.4929 C.ar    1  UNL1        0.1409
      2 N         141.4649  139.8006  166.9895 N.ar    1  UNL1       -0.1986
      3 C         142.6486  139.2371  167.7185 C.ar    1  UNL1        0.2181
      4 N         143.7663  138.5957  166.9510 N.ar    1  UNL1       -0.2120
      5 C         143.7005  138.5177  165.4544 C.ar    1  UNL1        0.1091
      6 C         142.5169  139.0812  164.7254 C.ar    1  UNL1        0.1040
      7 C         142.4510  139.0032  163.2289 C.2     1  UNL1        0.2470
      8 N         142.3535  137.6687  162.5510 N.am    1  UNL1       -0.3252
      9 O         142.4826  140.2598  162.4103 O.2     1  UNL1       -0.2702
     10 H         142.3327  136.8440  163.0883 H       1  UNL1        0.1453
     11 H         142.3103  137.6175  161.5688 H       1  UNL1        0.1453
     12 N         140.2154  140.2861  164.7639 N.pl3   1  UNL1       -0.2977
     13 H         139.5687  139.6812  164.3335 H       1  UNL1        0.1536
     14 C         142.1304  145.0472  163.9486 C.3     1  UNL1        0.0311
     15 C         140.9744  144.1516  164.2830 C.ar    1  UNL1       -0.0206
     16 C         139.6201  144.7411  164.5442 C.ar    1  UNL1       -0.0042
     17 C         138.4642  143.8456  164.8786 C.ar    1  UNL1        0.0009
     18 C         138.6626  142.3606  164.9519 C.ar    1  UNL1        0.0146
     19 C         140.0169  141.7711  164.6907 C.ar    1  UNL1        0.0491
     20 C         141.1728  142.6667  164.3563 C.ar    1  UNL1        0.0104
     21 N         142.7144  139.3151  169.2150 N.pl3   1  UNL1       -0.3032
     22 H         142.8120  138.4925  169.7470 H       1  UNL1        0.1496
     23 C         142.6317  140.6466  169.9010 C.3     1  UNL1        0.0888
     24 C         143.2311  141.9306  169.4091 C.3     1  UNL1        0.0381
     25 C         142.9049  143.0053  170.4033 C.3     1  UNL1        0.0704
     26 N         142.1039  142.3854  171.5098 N.3     1  UNL1       -0.2960
     27 C         141.9351  140.9277  171.1993 C.3     1  UNL1        0.0884
     28 H         141.1901  142.8347  171.5693 H       1  UNL1        0.1233
@<TRIPOS>BOND
     1    14    15    1
     2    15    16   ar
     3    16    17   ar
     4    17    18   ar
     5    18    19   ar
     6    19    12    1
     7    12     1    1
     8     1     2   ar
     9     2     3   ar
    10     3    21    1
    11    23    21    1
    12    23    24    1
    13    24    25    1
    14    25    26    1
    15    26    27    1
    16     3     4   ar
    17     4     5   ar
    18     5     6   ar
    19     6     7    1
    20     7     8   am
    21     7     9    2
    22    19    20   ar
    23    20    15   ar
    24     6     1   ar
    25    27    23    1
    26    12    13    1
    27    21    22    1
    28    26    28    1
    29     8    10    1
    30     8    11    1
@<TRIPOS>MOLECULE
*****
 28 30 0 0 0
SMALL
GASTEIGER

@<TRIPOS>ATOM
      1 C         140.3482  139.3232  165.9483 C.ar    1  UNL1        0.1409
      2 N         140.8476  140.0106  167.1845 N.ar    1  UNL1       -0.1986
      3 C         142.2654  139.8118  167.6323 C.ar    1  UNL1        0.2181
      4 N         143.1837  138.9257  166.8439 N.ar    1  UNL1       -0.2120
      5 C         142.6842  138.2383  165.6078 C.ar    1  UNL1        0.1091
      6 C         141.2665  138.4371  165.1600 C.ar    1  UNL1        0.1040
      7 C         140.7671  137.7497  163.9238 C.2     1  UNL1        0.2470
      8 N         141.7207  137.4117  162.8164 N.am    1  UNL1       -0.3252
      9 O         139.3140  137.4002  163.7951 O.2     1  UNL1       -0.2702
     10 H         142.6743  137.6411  162.9008 H       1  UNL1        0.1453
     11 H         141.3928  136.9606  162.0050 H       1  UNL1        0.1453
     12 N         138.9305  139.5220  165.5005 N.pl3   1  UNL1       -0.2977
     13 H         138.2517  138.8362  165.6961 H       1  UNL1        0.1536
     14 C         138.8390  144.7048  165.1391 C.3     1  UNL1        0.0311
     15 C         138.5012  143.3570  164.5740 C.ar    1  UNL1       -0.0206
     16 C         137.7798  143.2529  163.2630 C.ar    1  UNL1       -0.0042
     17 C         137.4420  141.9051  162.6978 C.ar    1  UNL1        0.0009
     18 C         137.8255  140.6615  163.4436 C.ar    1  UNL1        0.0146
     19 C         138.5469  140.7657  164.7546 C.ar    1  UNL1        0.0491
     20 C         138.8847  142.1134  165.3198 C.ar    1  UNL1        0.0104
     21 N         142.7649  140.4992  168.8684 N.pl3   1  UNL1       -0.3032
     22 H         143.7119  140.4220  169.1260 H       1  UNL1        0.1496
     23 C         141.8213  141.3042  169.7121 C.3     1  UNL1        0.0888
     24 C         141.0629  142.5207  169.2707 C.3     1  UNL1        0.0381
     25 C         140.2434  143.0024  170.4310 C.3     1  UNL1        0.0704
     26 N         140.4953  142.0836  171.5896 N.3     1  UNL1       -0.2960
     27 C         141.4705  141.0340  171.1452 C.3     1  UNL1        0.0884
     28 H         139.6216  141.6439  171.8790 H       1  UNL1        0.1233
@<TRIPOS>BOND
     1    14    15    1
     2    15    16   ar
     3    16    17   ar
     4    17    18   ar
     5    18    19   ar
     6    19    12    1
     7    12     1    1
     8     1     2   ar
     9     2     3   ar
    10     3    21    1
    11    23    21    1
    12    23    24    1
    13    24    25    1
    14    25    26    1
    15    26    27    1
    16     3     4   ar
    17     4     5   ar
    18     5     6   ar
    19     6     7    1
    20     7     8   am
    21     7     9    2
    22    19    20   ar
    23    20    15   ar
    24     6     1   ar
    25    27    23    1
    26    12    13    1
    27    21    22    1
    28    26    28    1
    29     8    10    1
    30     8    11    1
@<TRIPOS>MOLECULE
*****
 28 30 0 0 0
SMALL
GASTEIGER

@<TRIPOS>ATOM
      1 C         140.4878  141.0345  166.9270 C.ar    1  UNL1        0.1409
      2 N         139.7308  141.2304  165.6469 N.ar    1  UNL1       -0.1986
      3 C         138.4819  140.4416  165.3859 C.ar    1  UNL1        0.2181
      4 N         137.9900  139.4569  166.4049 N.ar    1  UNL1       -0.2120
      5 C         138.7470  139.2610  167.6850 C.ar    1  UNL1        0.1091
      6 C         139.9959  140.0497  167.9460 C.ar    1  UNL1        0.1040
      7 C         140.7529  139.8538  169.2261 C.2     1  UNL1        0.2470
      8 N         140.0133  139.7555  170.5273 N.am    1  UNL1       -0.3252
      9 O         142.2496  139.7560  169.2048 O.2     1  UNL1       -0.2702
     10 H         139.0310  139.8197  170.5412 H       1  UNL1        0.1453
     11 H         140.5101  139.6269  171.3674 H       1  UNL1        0.1453
     12 N         141.7367  141.8232  167.1880 N.pl3   1  UNL1       -0.2977
     13 H         141.8240  142.3466  168.0173 H       1  UNL1        0.1536
     14 C         144.7429  139.2465  163.8230 C.3     1  UNL1        0.0311
     15 C         144.3556  140.5262  164.5031 C.ar    1  UNL1       -0.0206
     16 C         145.0841  141.7971  164.1807 C.ar    1  UNL1       -0.0042
     17 C         144.6968  143.0768  164.8608 C.ar    1  UNL1        0.0009
     18 C         143.5810  143.0855  165.8632 C.ar    1  UNL1        0.0146
     19 C         142.8525  141.8145  166.1855 C.ar    1  UNL1        0.0491
     20 C         143.2398  140.5349  165.5055 C.ar    1  UNL1        0.0104
     21 N         137.7249  140.6376  164.1059 N.pl3   1  UNL1       -0.3032
     22 H         137.2064  139.8940  163.7218 H       1  UNL1        0.1496
     23 C         137.7578  141.9665  163.4109 C.3     1  UNL1        0.0888
     24 C         137.6357  143.3089  164.0691 C.3     1  UNL1        0.0381
     25 C         137.7211  144.3584  163.0008 C.3     1  UNL1        0.0704
     26 N         137.8961  143.6647  161.6824 N.3     1  UNL1       -0.2960
     27 C         137.9188  142.1864  161.9359 C.3     1  UNL1        0.0884
     28 H         138.7738  143.9556  161.2520 H       1  UNL1        0.1233
@<TRIPOS>BOND
     1    14    15    1
     2    15    16   ar
     3    16    17   ar
     4    17    18   ar
     5    18    19   ar
     6    19    12    1
     7    12     1    1
     8     1     2   ar
     9     2     3   ar
    10     3    21    1
    11    23    21    1
    12    23    24    1
    13    24    25    1
    14    25    26    1
    15    26    27    1
    16     3     4   ar
    17     4     5   ar
    18     5     6   ar
    19     6     7    1
    20     7     8   am
    21     7     9    2
    22    19    20   ar
    23    20    15   ar
    24     6     1   ar
    25    27    23    1
    26    12    13    1
    27    21    22    1
    28    26    28    1
    29     8    10    1
    30     8    11    1
