@<TRIPOS>MOLECULE
*****
 34 37 0 0 0
SMALL
GASTEIGER

@<TRIPOS>ATOM
      1 N         142.8431  140.5714  168.2508 N.3     1  UNL1       -0.2684
      2 C         142.9475  139.6156  167.0996 C.3     1  UNL1        0.1035
      3 C         143.3164  140.1209  165.7363 C.3     1  UNL1        0.1470
      4 C         143.6853  140.6262  164.3730 C.3     1  UNL1        0.1035
      5 N         143.9498  142.0874  164.1609 N.3     1  UNL1       -0.2673
      6 C         143.8454  143.0433  165.3123 C.3     1  UNL1        0.1035
      7 C         143.4765  142.5379  166.6755 C.3     1  UNL1        0.1470
      8 C         143.1076  142.0326  168.0388 C.3     1  UNL1        0.1035
      9 O         143.5809  141.5821  165.5243 O.3     1  UNL1       -0.3530
     10 C         142.4742  140.0661  169.6142 C.3     1  UNL1        0.0761
     11 C         141.0884  139.5549  169.8749 C.3     1  UNL1        0.0646
     12 C         139.9121  140.4765  169.7446 C.3     1  UNL1        0.2068
     13 O         139.7418  141.3047  168.5057 O.3     1  UNL1       -0.4754
     14 C         138.8277  139.3123  164.5757 C.ar    1  UNL1        0.0686
     15 C         138.3572  138.6926  165.8581 C.ar    1  UNL1        0.0134
     16 C         138.6619  139.3567  167.1681 C.ar    1  UNL1        0.0376
     17 C         139.4371  140.6406  167.1957 C.ar    1  UNL1        0.1386
     18 C         139.9076  141.2604  165.9133 C.ar    1  UNL1        0.0376
     19 C         139.6028  140.5962  164.6033 C.ar    1  UNL1        0.0134
     20 N         138.2182  137.9841  161.9557 N.1     1  UNL1       -0.1908
     21 C         138.5230  138.6483  163.2657 C.1     1  UNL1        0.1004
     22 C         144.3186  142.5927  162.7977 C.3     1  UNL1        0.0913
     23 C         144.1870  144.0524  162.4779 C.3     1  UNL1        0.1087
     24 N         142.9532  144.5620  161.7939 N.3     1  UNL1       -0.1780
     25 H         142.8811  144.0637  160.9068 H       1  UNL1        0.1488
     26 S         141.6184  144.4420  162.4676 S.O2    1  UNL1        0.0603
     27 O         141.1612  143.4997  161.3938 O.2     1  UNL1       -0.1530
     28 O         142.0756  145.3842  163.5413 O.2     1  UNL1       -0.1530
     29 C         140.2836  144.3220  163.1414 C.ar    1  UNL1        0.1219
     30 C         139.1175  143.7413  162.3976 C.ar    1  UNL1        0.0199
     31 C         137.7828  143.6213  163.0713 C.ar    1  UNL1        0.0014
     32 C         137.6140  144.0819  164.4888 C.ar    1  UNL1        0.0001
     33 C         138.7801  144.6626  165.2326 C.ar    1  UNL1        0.0014
     34 C         140.1148  144.7826  164.5588 C.ar    1  UNL1        0.0199
@<TRIPOS>BOND
     1    20    21    3
     2    21    14    1
     3    14    15   ar
     4    15    16   ar
     5    16    17   ar
     6    17    13    1
     7    13    12    1
     8    12    11    1
     9    11    10    1
    10    10     1    1
    11     1     2    1
    12     2     3    1
    13     3     4    1
    14     4     5    1
    15     5    22    1
    16    22    23    1
    17    23    24    1
    18    24    26    1
    19    26    27    2
    20    26    28    2
    21    26    29    1
    22    29    30   ar
    23    30    31   ar
    24    31    32   ar
    25    32    33   ar
    26    33    34   ar
    27     5     6    1
    28     6     7    1
    29     7     8    1
    30     7     9    1
    31    17    18   ar
    32    18    19   ar
    33    19    14   ar
    34     8     1    1
    35     9     3    1
    36    34    29   ar
    37    24    25    1
@<TRIPOS>MOLECULE
*****
 34 37 0 0 0
SMALL
GASTEIGER

@<TRIPOS>ATOM
      1 N         142.1895  142.3418  167.4168 N.3     1  UNL1       -0.2684
      2 C         142.9752  142.4712  166.1456 C.3     1  UNL1        0.1035
      3 C         142.3083  142.9739  164.8996 C.3     1  UNL1        0.1470
      4 C         141.6415  143.4767  163.6536 C.3     1  UNL1        0.1035
      5 N         140.1889  143.8500  163.6787 N.3     1  UNL1       -0.2673
      6 C         139.4032  143.7205  164.9500 C.3     1  UNL1        0.1035
      7 C         140.0700  143.2178  166.1960 C.3     1  UNL1        0.1470
      8 C         140.7369  142.7151  167.4419 C.3     1  UNL1        0.1035
      9 O         140.8557  143.3472  164.9248 O.3     1  UNL1       -0.3530
     10 C         142.8564  141.8391  168.6628 C.3     1  UNL1        0.0761
     11 C         142.7421  140.3927  169.0433 C.3     1  UNL1        0.0646
     12 C         142.3794  139.3709  168.0067 C.3     1  UNL1        0.2068
     13 O         143.4585  138.6355  167.2686 O.3     1  UNL1       -0.4754
     14 C         143.6951  138.8962  162.7824 C.ar    1  UNL1        0.0686
     15 C         144.8437  139.3698  163.6228 C.ar    1  UNL1        0.0134
     16 C         144.7649  139.2829  165.1182 C.ar    1  UNL1        0.0376
     17 C         143.5373  138.7224  165.7733 C.ar    1  UNL1        0.1386
     18 C         142.3887  138.2488  164.9329 C.ar    1  UNL1        0.0376
     19 C         142.4676  138.3357  163.4374 C.ar    1  UNL1        0.0134
     20 N         143.8527  139.0700  159.7916 N.1     1  UNL1       -0.1908
     21 C         143.7739  138.9831  161.2871 C.1     1  UNL1        0.1004
     22 C         139.5220  144.3527  162.4328 C.3     1  UNL1        0.0913
     23 C         139.0616  143.3829  161.3850 C.3     1  UNL1        0.1087
     24 N         137.9158  142.4580  161.6708 N.3     1  UNL1       -0.1780
     25 H         137.5844  142.1127  160.7700 H       1  UNL1        0.1488
     26 S         138.1216  141.2572  162.5457 S.O2    1  UNL1        0.0603
     27 O         139.4246  140.9786  161.8569 O.2     1  UNL1       -0.1530
     28 O         136.8186  141.5357  163.2345 O.2     1  UNL1       -0.1530
     29 C         138.3274  140.0563  163.4207 C.ar    1  UNL1        0.1219
     30 C         138.1947  140.1815  164.9096 C.ar    1  UNL1        0.0199
     31 C         138.4005  138.9807  165.7846 C.ar    1  UNL1        0.0014
     32 C         138.7389  137.6546  165.1707 C.ar    1  UNL1        0.0001
     33 C         138.8716  137.5294  163.6819 C.ar    1  UNL1        0.0014
     34 C         138.6659  138.7302  162.8069 C.ar    1  UNL1        0.0199
@<TRIPOS>BOND
     1    20    21    3
     2    21    14    1
     3    14    15   ar
     4    15    16   ar
     5    16    17   ar
     6    17    13    1
     7    13    12    1
     8    12    11    1
     9    11    10    1
    10    10     1    1
    11     1     2    1
    12     2     3    1
    13     3     4    1
    14     4     5    1
    15     5    22    1
    16    22    23    1
    17    23    24    1
    18    24    26    1
    19    26    27    2
    20    26    28    2
    21    26    29    1
    22    29    30   ar
    23    30    31   ar
    24    31    32   ar
    25    32    33   ar
    26    33    34   ar
    27     5     6    1
    28     6     7    1
    29     7     8    1
    30     7     9    1
    31    17    18   ar
    32    18    19   ar
    33    19    14   ar
    34     8     1    1
    35     9     3    1
    36    34    29   ar
    37    24    25    1
@<TRIPOS>MOLECULE
*****
 34 37 0 0 0
SMALL
GASTEIGER

@<TRIPOS>ATOM
      1 N         139.1384  139.0919  161.8868 N.3     1  UNL1       -0.2684
      2 C         137.9785  139.8460  161.3072 C.3     1  UNL1        0.1035
      3 C         138.2127  141.1304  160.5687 C.3     1  UNL1        0.1470
      4 C         138.4469  142.4149  159.8302 C.3     1  UNL1        0.1035
      5 N         139.8411  142.9452  159.6713 N.3     1  UNL1       -0.2673
      6 C         141.0010  142.1910  160.2509 C.3     1  UNL1        0.1035
      7 C         140.7667  140.9066  160.9893 C.3     1  UNL1        0.1470
      8 C         140.5325  139.6222  161.7278 C.3     1  UNL1        0.1035
      9 O         139.6069  141.6607  160.4098 O.3     1  UNL1       -0.3530
     10 C         138.9042  137.8074  162.6253 C.3     1  UNL1        0.0761
     11 C         138.9238  137.7903  164.1250 C.3     1  UNL1        0.0646
     12 C         140.2263  137.6551  164.8567 C.3     1  UNL1        0.2068
     13 O         141.0461  138.8741  165.1601 O.3     1  UNL1       -0.4754
     14 C         140.7824  140.8111  169.2133 C.ar    1  UNL1        0.0686
     15 C         142.1158  140.6457  168.5464 C.ar    1  UNL1        0.0134
     16 C         142.2037  140.0000  167.1953 C.ar    1  UNL1        0.0376
     17 C         140.9582  139.5197  166.5111 C.ar    1  UNL1        0.1386
     18 C         139.6248  139.6851  167.1780 C.ar    1  UNL1        0.0376
     19 C         139.5369  140.3308  168.5292 C.ar    1  UNL1        0.0134
     20 N         140.6066  142.1024  171.9155 N.1     1  UNL1       -0.1908
     21 C         140.6945  141.4567  170.5643 C.1     1  UNL1        0.1004
     22 C         140.0753  144.2296  158.9328 C.3     1  UNL1        0.0913
     23 C         140.4907  145.4607  159.6824 C.3     1  UNL1        0.1087
     24 N         139.6795  145.9369  160.8508 N.3     1  UNL1       -0.1780
     25 H         138.6994  145.8663  160.5771 H       1  UNL1        0.1488
     26 S         139.8080  145.2550  162.1806 S.O2    1  UNL1        0.0603
     27 O         141.3021  145.3407  162.0802 O.2     1  UNL1       -0.1530
     28 O         138.3138  145.1693  162.2810 O.2     1  UNL1       -0.1530
     29 C         139.9364  144.5731  163.5105 C.ar    1  UNL1        0.1219
     30 C         138.9022  144.8006  164.5729 C.ar    1  UNL1        0.0199
     31 C         139.0306  144.1187  165.9028 C.ar    1  UNL1        0.0014
     32 C         140.1931  143.2094  166.1702 C.ar    1  UNL1        0.0001
     33 C         141.2273  142.9819  165.1078 C.ar    1  UNL1        0.0014
     34 C         141.0989  143.6637  163.7779 C.ar    1  UNL1        0.0199
@<TRIPOS>BOND
     1    20    21    3
     2    21    14    1
     3    14    15   ar
     4    15    16   ar
     5    16    17   ar
     6    17    13    1
     7    13    12    1
     8    12    11    1
     9    11    10    1
    10    10     1    1
    11     1     2    1
    12     2     3    1
    13     3     4    1
    14     4     5    1
    15     5    22    1
    16    22    23    1
    17    23    24    1
    18    24    26    1
    19    26    27    2
    20    26    28    2
    21    26    29    1
    22    29    30   ar
    23    30    31   ar
    24    31    32   ar
    25    32    33   ar
    26    33    34   ar
    27     5     6    1
    28     6     7    1
    29     7     8    1
    30     7     9    1
    31    17    18   ar
    32    18    19   ar
    33    19    14   ar
    34     8     1    1
    35     9     3    1
    36    34    29   ar
    37    24    25    1
@<TRIPOS>MOLECULE
*****
 34 37 0 0 0
SMALL
GASTEIGER

@<TRIPOS>ATOM
      1 N         144.3971  142.0248  163.6108 N.3     1  UNL1       -0.2684
      2 C         144.1368  143.1826  164.5281 C.3     1  UNL1        0.1035
      3 C         143.0805  144.1901  164.1830 C.3     1  UNL1        0.1470
      4 C         142.0242  145.1977  163.8379 C.3     1  UNL1        0.1035
      5 N         141.2283  145.0474  162.5754 N.3     1  UNL1       -0.2673
      6 C         141.4887  143.8895  161.6580 C.3     1  UNL1        0.1035
      7 C         142.5449  142.8820  162.0031 C.3     1  UNL1        0.1470
      8 C         143.6012  141.8745  162.3483 C.3     1  UNL1        0.1035
      9 O         142.2846  144.0398  162.9205 O.3     1  UNL1       -0.3530
     10 C         145.4534  141.0171  163.9559 C.3     1  UNL1        0.0761
     11 C         145.0957  139.5650  164.0707 C.3     1  UNL1        0.0646
     12 C         144.0613  139.1235  165.0634 C.3     1  UNL1        0.2068
     13 O         142.7849  139.8974  165.2108 O.3     1  UNL1       -0.4754
     14 C         141.4289  141.2458  169.2843 C.ar    1  UNL1        0.0686
     15 C         141.1255  142.0834  168.0775 C.ar    1  UNL1        0.0134
     16 C         141.5774  141.6339  166.7197 C.ar    1  UNL1        0.0376
     17 C         142.3329  140.3468  166.5686 C.ar    1  UNL1        0.1386
     18 C         142.6364  139.5093  167.7754 C.ar    1  UNL1        0.0376
     19 C         142.1844  139.9588  169.1333 C.ar    1  UNL1        0.0134
     20 N         140.5250  142.1447  172.0000 N.1     1  UNL1       -0.1908
     21 C         140.9770  141.6953  170.6421 C.1     1  UNL1        0.1004
     22 C         140.1721  146.0550  162.2302 C.3     1  UNL1        0.0913
     23 C         138.8805  145.6062  161.6133 C.3     1  UNL1        0.1087
     24 N         137.8182  144.9813  162.4682 N.3     1  UNL1       -0.1780
     25 H         136.9415  145.0597  161.9528 H       1  UNL1        0.1488
     26 S         137.9441  143.5482  162.8929 S.O2    1  UNL1        0.0603
     27 O         137.9848  143.1255  161.4543 O.2     1  UNL1       -0.1530
     28 O         137.9035  143.9710  164.3315 O.2     1  UNL1       -0.1530
     29 C         138.0701  142.1151  163.3176 C.ar    1  UNL1        0.1219
     30 C         137.9489  141.0183  162.3016 C.ar    1  UNL1        0.0199
     31 C         138.0748  139.5852  162.7262 C.ar    1  UNL1        0.0014
     32 C         138.3219  139.2489  164.1670 C.ar    1  UNL1        0.0001
     33 C         138.4430  140.3457  165.1831 C.ar    1  UNL1        0.0014
     34 C         138.3171  141.7788  164.7584 C.ar    1  UNL1        0.0199
@<TRIPOS>BOND
     1    20    21    3
     2    21    14    1
     3    14    15   ar
     4    15    16   ar
     5    16    17   ar
     6    17    13    1
     7    13    12    1
     8    12    11    1
     9    11    10    1
    10    10     1    1
    11     1     2    1
    12     2     3    1
    13     3     4    1
    14     4     5    1
    15     5    22    1
    16    22    23    1
    17    23    24    1
    18    24    26    1
    19    26    27    2
    20    26    28    2
    21    26    29    1
    22    29    30   ar
    23    30    31   ar
    24    31    32   ar
    25    32    33   ar
    26    33    34   ar
    27     5     6    1
    28     6     7    1
    29     7     8    1
    30     7     9    1
    31    17    18   ar
    32    18    19   ar
    33    19    14   ar
    34     8     1    1
    35     9     3    1
    36    34    29   ar
    37    24    25    1
@<TRIPOS>MOLECULE
*****
 34 37 0 0 0
SMALL
GASTEIGER

@<TRIPOS>ATOM
      1 N         138.8027  139.3146  163.1666 N.3     1  UNL1       -0.2684
      2 C         138.3399  140.2317  164.2596 C.3     1  UNL1        0.1035
      3 C         138.3779  141.7176  164.0581 C.3     1  UNL1        0.1470
      4 C         138.4158  143.2036  163.8566 C.3     1  UNL1        0.1035
      5 N         138.9165  143.7724  162.5621 N.3     1  UNL1       -0.2673
      6 C         139.3793  142.8551  161.4690 C.3     1  UNL1        0.1035
      7 C         139.3414  141.3693  161.6706 C.3     1  UNL1        0.1470
      8 C         139.3034  139.8834  161.8721 C.3     1  UNL1        0.1035
      9 O         138.8786  142.2864  162.7636 O.3     1  UNL1       -0.3530
     10 C         138.7647  137.8286  163.3681 C.3     1  UNL1        0.0761
     11 C         139.6704  137.1851  164.3758 C.3     1  UNL1        0.0646
     12 C         141.1506  137.1443  164.1360 C.3     1  UNL1        0.2068
     13 O         141.9177  138.4215  163.9622 O.3     1  UNL1       -0.4754
     14 C         142.6218  141.1213  167.4928 C.ar    1  UNL1        0.0686
     15 C         142.9542  139.6616  167.5867 C.ar    1  UNL1        0.0134
     16 C         142.7195  138.7616  166.4099 C.ar    1  UNL1        0.0376
     17 C         142.1524  139.3214  165.1390 C.ar    1  UNL1        0.1386
     18 C         141.8200  140.7811  165.0450 C.ar    1  UNL1        0.0376
     19 C         142.0548  141.6810  166.2219 C.ar    1  UNL1        0.0134
     20 N         143.0913  142.9212  169.8465 N.1     1  UNL1       -0.1908
     21 C         142.8566  142.0212  168.6696 C.1     1  UNL1        0.1004
     22 C         138.9545  145.2582  162.3605 C.3     1  UNL1        0.0913
     23 C         140.2416  145.9318  161.9866 C.3     1  UNL1        0.1087
     24 N         141.4085  145.8951  162.9284 N.3     1  UNL1       -0.1780
     25 H         141.0299  145.9945  163.8703 H       1  UNL1        0.1488
     26 S         142.3170  144.7018  162.9506 S.O2    1  UNL1        0.0603
     27 O         142.3893  144.7289  161.4526 O.2     1  UNL1       -0.1530
     28 O         142.2448  144.6746  164.4486 O.2     1  UNL1       -0.1530
     29 C         143.2256  143.5084  162.9729 C.ar    1  UNL1        0.1219
     30 C         143.0459  142.4101  161.9671 C.ar    1  UNL1        0.0199
     31 C         143.9544  141.2168  161.9893 C.ar    1  UNL1        0.0014
     32 C         145.0427  141.1218  163.0173 C.ar    1  UNL1        0.0001
     33 C         145.2224  142.2200  164.0230 C.ar    1  UNL1        0.0014
     34 C         144.3139  143.4133  164.0008 C.ar    1  UNL1        0.0199
@<TRIPOS>BOND
     1    20    21    3
     2    21    14    1
     3    14    15   ar
     4    15    16   ar
     5    16    17   ar
     6    17    13    1
     7    13    12    1
     8    12    11    1
     9    11    10    1
    10    10     1    1
    11     1     2    1
    12     2     3    1
    13     3     4    1
    14     4     5    1
    15     5    22    1
    16    22    23    1
    17    23    24    1
    18    24    26    1
    19    26    27    2
    20    26    28    2
    21    26    29    1
    22    29    30   ar
    23    30    31   ar
    24    31    32   ar
    25    32    33   ar
    26    33    34   ar
    27     5     6    1
    28     6     7    1
    29     7     8    1
    30     7     9    1
    31    17    18   ar
    32    18    19   ar
    33    19    14   ar
    34     8     1    1
    35     9     3    1
    36    34    29   ar
    37    24    25    1
@<TRIPOS>MOLECULE
*****
 34 37 0 0 0
SMALL
GASTEIGER

@<TRIPOS>ATOM
      1 N         141.1458  138.4730  162.4377 N.3     1  UNL1       -0.2684
      2 C         140.5087  138.6433  161.0905 C.3     1  UNL1        0.1035
      3 C         140.8609  139.8266  160.2386 C.3     1  UNL1        0.1470
      4 C         141.2130  141.0099  159.3866 C.3     1  UNL1        0.1035
      5 N         142.2023  142.0229  159.8819 N.3     1  UNL1       -0.2673
      6 C         142.8394  141.8525  161.2292 C.3     1  UNL1        0.1035
      7 C         142.4872  140.6692  162.0811 C.3     1  UNL1        0.1470
      8 C         142.1351  139.4859  162.9331 C.3     1  UNL1        0.1035
      9 O         141.8501  140.8395  160.7339 O.3     1  UNL1       -0.3530
     10 C         140.7937  137.2897  163.2897 C.3     1  UNL1        0.0761
     11 C         139.9679  137.4762  164.5280 C.3     1  UNL1        0.0646
     12 C         138.8733  138.5015  164.5521 C.3     1  UNL1        0.2068
     13 O         139.1995  139.9407  164.8213 O.3     1  UNL1       -0.4754
     14 C         140.0438  141.3081  169.0245 C.ar    1  UNL1        0.0686
     15 C         139.2741  140.0426  168.7879 C.ar    1  UNL1        0.0134
     16 C         138.9926  139.5868  167.3869 C.ar    1  UNL1        0.0376
     17 C         139.4809  140.3965  166.2224 C.ar    1  UNL1        0.1386
     18 C         140.2506  141.6620  166.4590 C.ar    1  UNL1        0.0376
     19 C         140.5321  142.1178  167.8601 C.ar    1  UNL1        0.0134
     20 N         140.6068  142.2197  171.8267 N.1     1  UNL1       -0.1908
     21 C         140.3253  141.7639  170.4256 C.1     1  UNL1        0.1004
     22 C         142.5544  143.2061  159.0300 C.3     1  UNL1        0.0913
     23 C         141.7385  144.4619  159.1163 C.3     1  UNL1        0.1087
     24 N         141.7014  145.2459  160.3945 N.3     1  UNL1       -0.1780
     25 H         141.5148  146.2158  160.1398 H       1  UNL1        0.1488
     26 S         140.7189  144.8835  161.4684 S.O2    1  UNL1        0.0603
     27 O         141.7893  145.0536  162.5053 O.2     1  UNL1       -0.1530
     28 O         139.6484  144.7134  160.4315 O.2     1  UNL1       -0.1530
     29 C         139.7362  144.5210  162.5423 C.ar    1  UNL1        0.1219
     30 C         138.6264  143.5557  162.2485 C.ar    1  UNL1        0.0199
     31 C         137.6438  143.1932  163.3223 C.ar    1  UNL1        0.0014
     32 C         137.7710  143.7962  164.6898 C.ar    1  UNL1        0.0001
     33 C         138.8808  144.7615  164.9836 C.ar    1  UNL1        0.0014
     34 C         139.8634  145.1240  163.9098 C.ar    1  UNL1        0.0199
@<TRIPOS>BOND
     1    20    21    3
     2    21    14    1
     3    14    15   ar
     4    15    16   ar
     5    16    17   ar
     6    17    13    1
     7    13    12    1
     8    12    11    1
     9    11    10    1
    10    10     1    1
    11     1     2    1
    12     2     3    1
    13     3     4    1
    14     4     5    1
    15     5    22    1
    16    22    23    1
    17    23    24    1
    18    24    26    1
    19    26    27    2
    20    26    28    2
    21    26    29    1
    22    29    30   ar
    23    30    31   ar
    24    31    32   ar
    25    32    33   ar
    26    33    34   ar
    27     5     6    1
    28     6     7    1
    29     7     8    1
    30     7     9    1
    31    17    18   ar
    32    18    19   ar
    33    19    14   ar
    34     8     1    1
    35     9     3    1
    36    34    29   ar
    37    24    25    1
@<TRIPOS>MOLECULE
*****
 34 37 0 0 0
SMALL
GASTEIGER

@<TRIPOS>ATOM
      1 N         143.9826  141.6269  161.6905 N.3     1  UNL1       -0.2684
      2 C         143.7743  140.2000  161.2776 C.3     1  UNL1        0.1035
      3 C         142.4588  139.7712  160.6983 C.3     1  UNL1        0.1470
      4 C         141.1433  139.3424  160.1190 C.3     1  UNL1        0.1035
      5 N         140.0361  140.3406  159.9525 N.3     1  UNL1       -0.2673
      6 C         140.2444  141.7676  160.3654 C.3     1  UNL1        0.1035
      7 C         141.5599  142.1963  160.9447 C.3     1  UNL1        0.1470
      8 C         142.8753  142.6251  161.5240 C.3     1  UNL1        0.1035
      9 O         141.3516  140.7694  160.5319 O.3     1  UNL1       -0.3530
     10 C         145.2981  142.0557  162.2698 C.3     1  UNL1        0.0761
     11 C         145.4650  142.1582  163.7569 C.3     1  UNL1        0.0646
     12 C         144.3681  141.6935  164.6685 C.3     1  UNL1        0.2068
     13 O         143.1145  142.5053  164.8082 O.3     1  UNL1       -0.4754
     14 C         140.9785  142.6833  168.7649 C.ar    1  UNL1        0.0686
     15 C         142.4404  142.3508  168.7161 C.ar    1  UNL1        0.0134
     16 C         143.1524  142.2914  167.3972 C.ar    1  UNL1        0.0376
     17 C         142.4025  142.5646  166.1270 C.ar    1  UNL1        0.1386
     18 C         140.9407  142.8972  166.1759 C.ar    1  UNL1        0.0376
     19 C         140.2287  142.9566  167.4949 C.ar    1  UNL1        0.0134
     20 N         139.5545  142.8021  171.4027 N.1     1  UNL1       -0.1908
     21 C         140.2665  142.7427  170.0838 C.1     1  UNL1        0.1004
     22 C         138.7206  139.9119  159.3732 C.3     1  UNL1        0.0913
     23 C         137.4706  140.0105  160.1966 C.3     1  UNL1        0.1087
     24 N         137.2342  139.0448  161.3197 N.3     1  UNL1       -0.1780
     25 H         137.3674  138.1090  160.9364 H       1  UNL1        0.1488
     26 S         138.0660  139.1249  162.5653 S.O2    1  UNL1        0.0603
     27 O         137.5526  140.5113  162.8190 O.2     1  UNL1       -0.1530
     28 O         138.5795  137.7386  162.3117 O.2     1  UNL1       -0.1530
     29 C         138.8979  139.2050  163.8110 C.ar    1  UNL1        0.1219
     30 C         140.3702  138.9247  163.7489 C.ar    1  UNL1        0.0199
     31 C         141.2021  139.0048  164.9945 C.ar    1  UNL1        0.0014
     32 C         140.5617  139.3652  166.3021 C.ar    1  UNL1        0.0001
     33 C         139.0895  139.6455  166.3642 C.ar    1  UNL1        0.0014
     34 C         138.2576  139.5654  165.1187 C.ar    1  UNL1        0.0199
@<TRIPOS>BOND
     1    20    21    3
     2    21    14    1
     3    14    15   ar
     4    15    16   ar
     5    16    17   ar
     6    17    13    1
     7    13    12    1
     8    12    11    1
     9    11    10    1
    10    10     1    1
    11     1     2    1
    12     2     3    1
    13     3     4    1
    14     4     5    1
    15     5    22    1
    16    22    23    1
    17    23    24    1
    18    24    26    1
    19    26    27    2
    20    26    28    2
    21    26    29    1
    22    29    30   ar
    23    30    31   ar
    24    31    32   ar
    25    32    33   ar
    26    33    34   ar
    27     5     6    1
    28     6     7    1
    29     7     8    1
    30     7     9    1
    31    17    18   ar
    32    18    19   ar
    33    19    14   ar
    34     8     1    1
    35     9     3    1
    36    34    29   ar
    37    24    25    1
@<TRIPOS>MOLECULE
*****
 34 37 0 0 0
SMALL
GASTEIGER

@<TRIPOS>ATOM
      1 N         139.3186  137.6812  164.1579 N.3     1  UNL1       -0.2684
      2 C         140.8111  137.5370  164.1990 C.3     1  UNL1        0.1035
      3 C         141.6178  137.7300  162.9492 C.3     1  UNL1        0.1470
      4 C         142.4246  137.9230  161.6995 C.3     1  UNL1        0.1035
      5 N         141.7389  138.2602  160.4087 N.3     1  UNL1       -0.2673
      6 C         140.2463  138.4044  160.3677 C.3     1  UNL1        0.1035
      7 C         139.4396  138.2114  161.6174 C.3     1  UNL1        0.1470
      8 C         138.6329  138.0184  162.8672 C.3     1  UNL1        0.1035
      9 O         140.9321  138.0672  161.6585 O.3     1  UNL1       -0.3530
     10 C         138.5118  137.4881  165.4077 C.3     1  UNL1        0.0761
     11 C         138.5856  138.5007  166.5119 C.3     1  UNL1        0.0646
     12 C         138.5356  139.9652  166.1912 C.3     1  UNL1        0.2068
     13 O         139.7896  140.6912  165.8036 O.3     1  UNL1       -0.4754
     14 C         139.5640  144.2967  163.1204 C.ar    1  UNL1        0.0686
     15 C         139.6648  144.4730  164.6066 C.ar    1  UNL1        0.0134
     16 C         139.7400  143.2712  165.5010 C.ar    1  UNL1        0.0376
     17 C         139.7144  141.8930  164.9092 C.ar    1  UNL1        0.1386
     18 C         139.6136  141.7168  163.4230 C.ar    1  UNL1        0.0376
     19 C         139.5383  142.9187  162.5286 C.ar    1  UNL1        0.0134
     20 N         139.4135  146.7004  161.3316 N.1     1  UNL1       -0.1908
     21 C         139.4887  145.4985  162.2260 C.1     1  UNL1        0.1004
     22 C         142.5456  138.4533  159.1590 C.3     1  UNL1        0.0913
     23 C         143.4504  139.6424  159.0264 C.3     1  UNL1        0.1087
     24 N         142.8992  141.0269  159.1972 N.3     1  UNL1       -0.1780
     25 H         141.9041  140.9767  158.9789 H       1  UNL1        0.1488
     26 S         143.0176  141.7233  160.5205 S.O2    1  UNL1        0.0603
     27 O         141.8538  142.5996  160.1634 O.2     1  UNL1       -0.1530
     28 O         144.1814  140.8470  160.8775 O.2     1  UNL1       -0.1530
     29 C         143.1360  142.4197  161.8438 C.ar    1  UNL1        0.1219
     30 C         143.1378  143.9184  161.9051 C.ar    1  UNL1        0.0199
     31 C         143.2562  144.6148  163.2283 C.ar    1  UNL1        0.0014
     32 C         143.3728  143.8125  164.4902 C.ar    1  UNL1        0.0001
     33 C         143.3710  142.3137  164.4290 C.ar    1  UNL1        0.0014
     34 C         143.2526  141.6173  163.1057 C.ar    1  UNL1        0.0199
@<TRIPOS>BOND
     1    20    21    3
     2    21    14    1
     3    14    15   ar
     4    15    16   ar
     5    16    17   ar
     6    17    13    1
     7    13    12    1
     8    12    11    1
     9    11    10    1
    10    10     1    1
    11     1     2    1
    12     2     3    1
    13     3     4    1
    14     4     5    1
    15     5    22    1
    16    22    23    1
    17    23    24    1
    18    24    26    1
    19    26    27    2
    20    26    28    2
    21    26    29    1
    22    29    30   ar
    23    30    31   ar
    24    31    32   ar
    25    32    33   ar
    26    33    34   ar
    27     5     6    1
    28     6     7    1
    29     7     8    1
    30     7     9    1
    31    17    18   ar
    32    18    19   ar
    33    19    14   ar
    34     8     1    1
    35     9     3    1
    36    34    29   ar
    37    24    25    1
@<TRIPOS>MOLECULE
*****
 34 37 0 0 0
SMALL
GASTEIGER

@<TRIPOS>ATOM
      1 N         138.8831  139.4645  164.8851 N.3     1  UNL1       -0.2684
      2 C         139.7196  138.3239  164.3858 C.3     1  UNL1        0.1035
      3 C         140.1100  138.2572  162.9391 C.3     1  UNL1        0.1470
      4 C         140.5005  138.1905  161.4923 C.3     1  UNL1        0.1035
      5 N         140.0545  139.2644  160.5448 N.3     1  UNL1       -0.2673
      6 C         139.2180  140.4051  161.0441 C.3     1  UNL1        0.1035
      7 C         138.8275  140.4718  162.4908 C.3     1  UNL1        0.1470
      8 C         138.4371  140.5385  163.9376 C.3     1  UNL1        0.1035
      9 O         139.6640  139.3312  161.9916 O.3     1  UNL1       -0.3530
     10 C         138.4927  139.5313  166.3319 C.3     1  UNL1        0.0761
     11 C         139.5462  139.7011  167.3860 C.3     1  UNL1        0.0646
     12 C         140.0794  141.0675  167.7002 C.3     1  UNL1        0.2068
     13 O         141.1606  141.6646  166.8491 O.3     1  UNL1       -0.4754
     14 C         140.0965  144.5074  163.5270 C.ar    1  UNL1        0.0686
     15 C         139.3443  144.5542  164.8239 C.ar    1  UNL1        0.0134
     16 C         139.6990  143.6066  165.9312 C.ar    1  UNL1        0.0376
     17 C         140.8059  142.6122  165.7417 C.ar    1  UNL1        0.1386
     18 C         141.5582  142.5654  164.4448 C.ar    1  UNL1        0.0376
     19 C         141.2034  143.5131  163.3374 C.ar    1  UNL1        0.0134
     20 N         139.3871  146.4026  161.3122 N.1     1  UNL1       -0.1908
     21 C         139.7419  145.4550  162.4196 C.1     1  UNL1        0.1004
     22 C         140.4449  139.1978  159.0981 C.3     1  UNL1        0.0913
     23 C         141.3712  140.2280  158.5229 C.3     1  UNL1        0.1087
     24 N         142.8536  140.0881  158.7037 N.3     1  UNL1       -0.1780
     25 H         143.2913  140.7732  158.0877 H       1  UNL1        0.1488
     26 S         143.4645  140.2736  160.0610 S.O2    1  UNL1        0.0603
     27 O         142.8685  141.6477  160.1414 O.2     1  UNL1       -0.1530
     28 O         144.0605  138.8995  159.9806 O.2     1  UNL1       -0.1530
     29 C         144.0754  140.4591  161.4184 C.ar    1  UNL1        0.1219
     30 C         143.9502  139.3785  162.4512 C.ar    1  UNL1        0.0199
     31 C         144.5610  139.5639  163.8085 C.ar    1  UNL1        0.0014
     32 C         145.2970  140.8300  164.1331 C.ar    1  UNL1        0.0001
     33 C         145.4222  141.9106  163.1003 C.ar    1  UNL1        0.0014
     34 C         144.8113  141.7251  161.7430 C.ar    1  UNL1        0.0199
@<TRIPOS>BOND
     1    20    21    3
     2    21    14    1
     3    14    15   ar
     4    15    16   ar
     5    16    17   ar
     6    17    13    1
     7    13    12    1
     8    12    11    1
     9    11    10    1
    10    10     1    1
    11     1     2    1
    12     2     3    1
    13     3     4    1
    14     4     5    1
    15     5    22    1
    16    22    23    1
    17    23    24    1
    18    24    26    1
    19    26    27    2
    20    26    28    2
    21    26    29    1
    22    29    30   ar
    23    30    31   ar
    24    31    32   ar
    25    32    33   ar
    26    33    34   ar
    27     5     6    1
    28     6     7    1
    29     7     8    1
    30     7     9    1
    31    17    18   ar
    32    18    19   ar
    33    19    14   ar
    34     8     1    1
    35     9     3    1
    36    34    29   ar
    37    24    25    1
