@<TRIPOS>MOLECULE
*****
 33 37 0 0 0
SMALL
GASTEIGER

@<TRIPOS>ATOM
      1 C         139.8965  144.4233  157.5302 C.3     1  UNL1        0.0501
      2 C         139.5427  143.4594  158.6237 C.2     1  UNL1        0.0727
      3 N         138.4681  142.4146  158.5646 N.2     1  UNL1       -0.1562
      4 N         138.4627  141.6806  159.8727 N.2     1  UNL1       -0.1521
      5 C         139.5339  142.2717  160.7404 C.2     1  UNL1        0.0954
      6 C         140.2014  143.3711  159.9685 C.3     1  UNL1        0.1563
      7 C         141.3228  144.1498  160.5898 C.2     1  UNL1        0.2400
      8 O         141.9904  145.2492  159.8180 O.2     1  UNL1       -0.2737
      9 N         141.7767  143.8290  161.9831 N.am    1  UNL1       -0.2580
     10 C         141.1093  142.7297  162.7549 C.ar    1  UNL1        0.0547
     11 C         141.5631  142.4089  164.1482 C.ar    1  UNL1        0.0104
     12 C         140.8957  141.3096  164.9200 C.ar    1  UNL1       -0.0252
     13 C         139.7742  140.5309  164.2987 C.ar    1  UNL1       -0.0263
     14 C         139.3203  140.8516  162.9055 C.ar    1  UNL1       -0.0021
     15 C         139.9878  141.9510  162.1336 C.ar    1  UNL1        0.0295
     16 C         141.3495  140.9888  166.3133 C.3     1  UNL1        0.0221
     17 C         140.9181  141.8535  167.4604 C.3     1  UNL1        0.0043
     18 C         141.3720  141.5328  168.8537 C.3     1  UNL1        0.0003
     19 C         142.2573  140.3472  169.0997 C.3     1  UNL1        0.0000
     20 C         142.6888  139.4824  167.9526 C.3     1  UNL1        0.0003
     21 C         142.2349  139.8032  166.5593 C.3     1  UNL1        0.0043
     22 C         139.1067  139.4315  165.0705 C.3     1  UNL1        0.0220
     23 C         138.2763  139.7586  166.2761 C.3     1  UNL1        0.0043
     24 C         137.6088  138.6593  167.0479 C.3     1  UNL1        0.0003
     25 C         137.7716  137.2326  166.6140 C.3     1  UNL1        0.0000
     26 C         138.6019  136.9054  165.4084 C.3     1  UNL1        0.0003
     27 C         139.2695  138.0049  164.6367 C.3     1  UNL1        0.0043
     28 C         142.8982  144.6077  162.6045 C.3     1  UNL1        0.0996
     29 C         144.3122  144.1264  162.4664 C.3     1  UNL1        0.0387
     30 C         144.5917  142.7862  161.8534 C.3     1  UNL1        0.0669
     31 N         145.6667  141.9098  162.4246 N.3     1  UNL1       -0.3211
     32 H         146.5752  142.3530  162.2877 H       1  UNL1        0.1189
     33 H         145.6549  141.0057  161.9526 H       1  UNL1        0.1189
@<TRIPOS>BOND
     1     1     2    1
     2     2     3    2
     3     3     4    1
     4     4     5    2
     5     5     6    1
     6     6     7    1
     7     7     8    2
     8     7     9   am
     9     9    28    1
    10    28    29    1
    11    29    30    1
    12    30    31    1
    13     9    10    1
    14    10    11   ar
    15    11    12   ar
    16    12    16    1
    17    16    17    1
    18    17    18    1
    19    18    19    1
    20    19    20    1
    21    20    21    1
    22    12    13   ar
    23    13    22    1
    24    22    23    1
    25    23    24    1
    26    24    25    1
    27    25    26    1
    28    26    27    1
    29    13    14   ar
    30    14    15   ar
    31     6     2    1
    32    15    10   ar
    33    15     5    1
    34    21    16    1
    35    27    22    1
    36    31    32    1
    37    31    33    1
@<TRIPOS>MOLECULE
*****
 33 37 0 0 0
SMALL
GASTEIGER

@<TRIPOS>ATOM
      1 C         137.5600  142.3799  155.5278 C.3     1  UNL1        0.0501
      2 C         137.5622  141.6990  156.8643 C.2     1  UNL1        0.0727
      3 N         136.6575  140.5789  157.2846 N.2     1  UNL1       -0.1562
      4 N         137.0056  140.2062  158.6953 N.2     1  UNL1       -0.1521
      5 C         138.1256  141.0960  159.1468 C.2     1  UNL1        0.0954
      6 C         138.4696  142.0186  158.0152 C.3     1  UNL1        0.1563
      7 C         139.5646  143.0306  158.1789 C.2     1  UNL1        0.2400
      8 O         139.9086  143.9532  157.0473 O.2     1  UNL1       -0.2737
      9 N         140.3157  143.1199  159.4743 N.am    1  UNL1       -0.2580
     10 C         139.9717  142.1974  160.6059 C.ar    1  UNL1        0.0547
     11 C         140.7227  142.2867  161.9013 C.ar    1  UNL1        0.0104
     12 C         140.3788  141.3641  163.0328 C.ar    1  UNL1       -0.0252
     13 C         139.2838  140.3522  162.8691 C.ar    1  UNL1       -0.0263
     14 C         138.5327  140.2628  161.5737 C.ar    1  UNL1       -0.0021
     15 C         138.8767  141.1854  160.4421 C.ar    1  UNL1        0.0295
     16 C         141.1298  141.4535  164.3282 C.3     1  UNL1        0.0221
     17 C         142.2991  140.5487  164.5812 C.3     1  UNL1        0.0043
     18 C         143.0501  140.6380  165.8766 C.3     1  UNL1        0.0003
     19 C         142.6318  141.6322  166.9190 C.3     1  UNL1        0.0000
     20 C         141.4625  142.5371  166.6660 C.3     1  UNL1        0.0003
     21 C         140.7115  142.4477  165.3706 C.3     1  UNL1        0.0043
     22 C         138.9397  139.4295  164.0006 C.3     1  UNL1        0.0220
     23 C         139.3250  137.9815  163.9315 C.3     1  UNL1        0.0043
     24 C         138.9810  137.0590  165.0630 C.3     1  UNL1        0.0003
     25 C         138.2516  137.5844  166.2638 C.3     1  UNL1        0.0000
     26 C         137.8662  139.0324  166.3330 C.3     1  UNL1        0.0003
     27 C         138.2103  139.9550  165.2014 C.3     1  UNL1        0.0043
     28 C         141.4108  144.1319  159.6381 C.3     1  UNL1        0.0996
     29 C         141.0745  145.5503  159.9919 C.3     1  UNL1        0.0387
     30 C         139.9782  145.8384  160.9743 C.3     1  UNL1        0.0669
     31 N         140.2856  146.5680  162.2484 N.3     1  UNL1       -0.3211
     32 H         140.8912  145.9915  162.8327 H       1  UNL1        0.1189
     33 H         139.4171  146.7624  162.7469 H       1  UNL1        0.1189
@<TRIPOS>BOND
     1     1     2    1
     2     2     3    2
     3     3     4    1
     4     4     5    2
     5     5     6    1
     6     6     7    1
     7     7     8    2
     8     7     9   am
     9     9    28    1
    10    28    29    1
    11    29    30    1
    12    30    31    1
    13     9    10    1
    14    10    11   ar
    15    11    12   ar
    16    12    16    1
    17    16    17    1
    18    17    18    1
    19    18    19    1
    20    19    20    1
    21    20    21    1
    22    12    13   ar
    23    13    22    1
    24    22    23    1
    25    23    24    1
    26    24    25    1
    27    25    26    1
    28    26    27    1
    29    13    14   ar
    30    14    15   ar
    31     6     2    1
    32    15    10   ar
    33    15     5    1
    34    21    16    1
    35    27    22    1
    36    31    32    1
    37    31    33    1
@<TRIPOS>MOLECULE
*****
 33 37 0 0 0
SMALL
GASTEIGER

@<TRIPOS>ATOM
      1 C         136.8523  139.0319  170.8273 C.3     1  UNL1        0.0501
      2 C         137.3360  138.8895  169.4146 C.2     1  UNL1        0.0727
      3 N         136.7611  137.9751  168.3738 N.2     1  UNL1       -0.1562
      4 N         137.5494  138.1569  167.1106 N.2     1  UNL1       -0.1521
      5 C         138.6115  139.1836  167.3707 C.2     1  UNL1        0.0954
      6 C         138.4796  139.6364  168.7947 C.3     1  UNL1        0.1563
      7 C         139.4179  140.6704  169.3429 C.2     1  UNL1        0.2400
      8 O         139.2861  141.1232  170.7668 O.2     1  UNL1       -0.2737
      9 N         140.4881  141.2515  168.4670 N.am    1  UNL1       -0.2580
     10 C         140.6199  140.7988  167.0432 C.ar    1  UNL1        0.0547
     11 C         141.6901  141.3800  166.1673 C.ar    1  UNL1        0.0104
     12 C         141.8219  140.9272  164.7434 C.ar    1  UNL1       -0.0252
     13 C         140.8836  139.8932  164.1953 C.ar    1  UNL1       -0.0263
     14 C         139.8135  139.3121  165.0710 C.ar    1  UNL1       -0.0021
     15 C         139.6816  139.7648  166.4950 C.ar    1  UNL1        0.0295
     16 C         142.8921  141.5084  163.8676 C.3     1  UNL1        0.0221
     17 C         144.2956  140.9859  163.9512 C.3     1  UNL1        0.0043
     18 C         145.3658  141.5671  163.0754 C.3     1  UNL1        0.0003
     19 C         145.0323  142.6708  162.1159 C.3     1  UNL1        0.0000
     20 C         143.6287  143.1933  162.0323 C.3     1  UNL1        0.0003
     21 C         142.5586  142.6121  162.9081 C.3     1  UNL1        0.0043
     22 C         141.0154  139.4404  162.7713 C.3     1  UNL1        0.0220
     23 C         141.9952  138.3621  162.4147 C.3     1  UNL1        0.0043
     24 C         142.1269  137.9093  160.9909 C.3     1  UNL1        0.0003
     25 C         141.2788  138.5349  159.9234 C.3     1  UNL1        0.0000
     26 C         140.2990  139.6132  160.2799 C.3     1  UNL1        0.0003
     27 C         140.1673  140.0660  161.7039 C.3     1  UNL1        0.0043
     28 C         141.4264  142.2856  169.0152 C.3     1  UNL1        0.0996
     29 C         142.7539  141.8710  169.5773 C.3     1  UNL1        0.0387
     30 C         142.8519  140.6555  170.4508 C.3     1  UNL1        0.0669
     31 N         142.1770  140.6383  171.7904 N.3     1  UNL1       -0.3211
     32 H         142.6186  141.3245  172.4024 H       1  UNL1        0.1189
     33 H         142.2635  139.7094  172.2027 H       1  UNL1        0.1189
@<TRIPOS>BOND
     1     1     2    1
     2     2     3    2
     3     3     4    1
     4     4     5    2
     5     5     6    1
     6     6     7    1
     7     7     8    2
     8     7     9   am
     9     9    28    1
    10    28    29    1
    11    29    30    1
    12    30    31    1
    13     9    10    1
    14    10    11   ar
    15    11    12   ar
    16    12    16    1
    17    16    17    1
    18    17    18    1
    19    18    19    1
    20    19    20    1
    21    20    21    1
    22    12    13   ar
    23    13    22    1
    24    22    23    1
    25    23    24    1
    26    24    25    1
    27    25    26    1
    28    26    27    1
    29    13    14   ar
    30    14    15   ar
    31     6     2    1
    32    15    10   ar
    33    15     5    1
    34    21    16    1
    35    27    22    1
    36    31    32    1
    37    31    33    1
@<TRIPOS>MOLECULE
*****
 33 37 0 0 0
SMALL
GASTEIGER

@<TRIPOS>ATOM
      1 C         136.3337  141.7225  154.0939 C.3     1  UNL1        0.0501
      2 C         136.7404  141.4595  155.5135 C.2     1  UNL1        0.0727
      3 N         136.2026  140.3741  156.3982 N.2     1  UNL1       -0.1562
      4 N         136.8862  140.4796  157.7292 N.2     1  UNL1       -0.1521
      5 C         137.8466  141.6301  157.6671 C.2     1  UNL1        0.0954
      6 C         137.7565  142.2358  156.2978 C.3     1  UNL1        0.1563
      7 C         138.6113  143.4159  155.9419 C.2     1  UNL1        0.2400
      8 O         138.5213  144.0216  154.5726 O.2     1  UNL1       -0.2737
      9 N         139.5562  143.9903  156.9555 N.am    1  UNL1       -0.2580
     10 C         139.6463  143.3847  158.3248 C.ar    1  UNL1        0.0547
     11 C         140.5912  143.9591  159.3383 C.ar    1  UNL1        0.0104
     12 C         140.6813  143.3535  160.7076 C.ar    1  UNL1       -0.0252
     13 C         139.8265  142.1734  161.0634 C.ar    1  UNL1       -0.0263
     14 C         138.8816  141.5989  160.0500 C.ar    1  UNL1       -0.0021
     15 C         138.7915  142.2046  158.6806 C.ar    1  UNL1        0.0295
     16 C         141.6262  143.9279  161.7212 C.3     1  UNL1        0.0221
     17 C         143.0812  143.5659  161.6799 C.3     1  UNL1        0.0043
     18 C         144.0261  144.1403  162.6935 C.3     1  UNL1        0.0003
     19 C         143.5159  145.0768  163.7483 C.3     1  UNL1        0.0000
     20 C         142.0608  145.4388  163.7895 C.3     1  UNL1        0.0003
     21 C         141.1160  144.8644  162.7760 C.3     1  UNL1        0.0043
     22 C         139.9165  141.5676  162.4328 C.3     1  UNL1        0.0220
     23 C         141.0027  140.5821  162.7471 C.3     1  UNL1        0.0043
     24 C         141.0927  139.9764  164.1163 C.3     1  UNL1        0.0003
     25 C         140.0964  140.3563  165.1715 C.3     1  UNL1        0.0000
     26 C         139.0102  141.3419  164.8572 C.3     1  UNL1        0.0003
     27 C         138.9203  141.9476  163.4878 C.3     1  UNL1        0.0043
     28 C         140.4111  145.1705  156.5997 C.3     1  UNL1        0.0996
     29 C         139.8729  146.5615  156.7585 C.3     1  UNL1        0.0387
     30 C         139.3456  147.3024  155.5656 C.3     1  UNL1        0.0669
     31 N         138.0695  146.8607  154.9124 N.3     1  UNL1       -0.3211
     32 H         138.2019  145.9390  154.4961 H       1  UNL1        0.1189
     33 H         137.8108  147.5281  154.1856 H       1  UNL1        0.1189
@<TRIPOS>BOND
     1     1     2    1
     2     2     3    2
     3     3     4    1
     4     4     5    2
     5     5     6    1
     6     6     7    1
     7     7     8    2
     8     7     9   am
     9     9    28    1
    10    28    29    1
    11    29    30    1
    12    30    31    1
    13     9    10    1
    14    10    11   ar
    15    11    12   ar
    16    12    16    1
    17    16    17    1
    18    17    18    1
    19    18    19    1
    20    19    20    1
    21    20    21    1
    22    12    13   ar
    23    13    22    1
    24    22    23    1
    25    23    24    1
    26    24    25    1
    27    25    26    1
    28    26    27    1
    29    13    14   ar
    30    14    15   ar
    31     6     2    1
    32    15    10   ar
    33    15     5    1
    34    21    16    1
    35    27    22    1
    36    31    32    1
    37    31    33    1
@<TRIPOS>MOLECULE
*****
 33 37 0 0 0
SMALL
GASTEIGER

@<TRIPOS>ATOM
      1 C         145.8265  141.0559  154.1816 C.3     1  UNL1        0.0501
      2 C         145.5088  141.3333  155.6211 C.2     1  UNL1        0.0727
      3 N         146.0341  142.4785  156.4350 N.2     1  UNL1       -0.1562
      4 N         145.4600  142.3672  157.8164 N.2     1  UNL1       -0.1521
      5 C         144.5799  141.1532  157.8561 C.2     1  UNL1        0.0954
      6 C         144.6101  140.5142  156.4994 C.3     1  UNL1        0.1563
      7 C         143.8153  139.2690  156.2389 C.2     1  UNL1        0.2400
      8 O         143.8454  138.6300  154.8822 O.2     1  UNL1       -0.2737
      9 N         142.9903  138.6629  157.3354 N.am    1  UNL1       -0.2580
     10 C         142.9602  139.3018  158.6920 C.ar    1  UNL1        0.0547
     11 C         142.1352  138.6957  159.7885 C.ar    1  UNL1        0.0104
     12 C         142.1050  139.3347  161.1451 C.ar    1  UNL1       -0.0252
     13 C         142.8998  140.5798  161.4055 C.ar    1  UNL1       -0.0263
     14 C         143.7247  141.1860  160.3092 C.ar    1  UNL1       -0.0021
     15 C         143.7549  140.5470  158.9525 C.ar    1  UNL1        0.0295
     16 C         141.2800  138.7285  162.2415 C.3     1  UNL1        0.0221
     17 C         141.9194  137.8123  163.2423 C.3     1  UNL1        0.0043
     18 C         141.0945  137.2061  164.3387 C.3     1  UNL1        0.0003
     19 C         139.6300  137.5163  164.4342 C.3     1  UNL1        0.0000
     20 C         138.9906  138.4326  163.4335 C.3     1  UNL1        0.0003
     21 C         139.8156  139.0387  162.3371 C.3     1  UNL1        0.0043
     22 C         142.8696  141.2189  162.7623 C.3     1  UNL1        0.0220
     23 C         141.7530  142.1515  163.1275 C.3     1  UNL1        0.0043
     24 C         141.7229  142.7905  164.4842 C.3     1  UNL1        0.0003
     25 C         142.8095  142.4969  165.4758 C.3     1  UNL1        0.0000
     26 C         143.9262  141.5644  165.1106 C.3     1  UNL1        0.0003
     27 C         143.9562  140.9254  163.7538 C.3     1  UNL1        0.0043
     28 C         142.1955  137.4176  157.0749 C.3     1  UNL1        0.0996
     29 C         142.8198  136.0707  157.2897 C.3     1  UNL1        0.0387
     30 C         143.3379  135.2890  156.1190 C.3     1  UNL1        0.0669
     31 N         144.4715  135.8297  155.2988 N.3     1  UNL1       -0.3211
     32 H         144.1693  136.6770  154.8180 H       1  UNL1        0.1189
     33 H         144.7567  135.1321  154.6114 H       1  UNL1        0.1189
@<TRIPOS>BOND
     1     1     2    1
     2     2     3    2
     3     3     4    1
     4     4     5    2
     5     5     6    1
     6     6     7    1
     7     7     8    2
     8     7     9   am
     9     9    28    1
    10    28    29    1
    11    29    30    1
    12    30    31    1
    13     9    10    1
    14    10    11   ar
    15    11    12   ar
    16    12    16    1
    17    16    17    1
    18    17    18    1
    19    18    19    1
    20    19    20    1
    21    20    21    1
    22    12    13   ar
    23    13    22    1
    24    22    23    1
    25    23    24    1
    26    24    25    1
    27    25    26    1
    28    26    27    1
    29    13    14   ar
    30    14    15   ar
    31     6     2    1
    32    15    10   ar
    33    15     5    1
    34    21    16    1
    35    27    22    1
    36    31    32    1
    37    31    33    1
@<TRIPOS>MOLECULE
*****
 33 37 0 0 0
SMALL
GASTEIGER

@<TRIPOS>ATOM
      1 C         144.4974  142.2448  157.7396 C.3     1  UNL1        0.0501
      2 C         144.3127  142.1050  159.2217 C.2     1  UNL1        0.0727
      3 N         145.2234  142.6544  160.2794 N.2     1  UNL1       -0.1562
      4 N         144.6584  142.2803  161.6176 N.2     1  UNL1       -0.1521
      5 C         143.3985  141.4996  161.3869 C.2     1  UNL1        0.0954
      6 C         143.1848  141.3913  159.9062 C.3     1  UNL1        0.1563
      7 C         141.9909  140.6568  159.3724 C.2     1  UNL1        0.2400
      8 O         141.7771  140.5485  157.8916 O.2     1  UNL1       -0.2737
      9 N         141.0106  140.0305  160.3195 N.am    1  UNL1       -0.2580
     10 C         141.2242  140.1388  161.8002 C.ar    1  UNL1        0.0547
     11 C         140.2439  139.5126  162.7473 C.ar    1  UNL1        0.0104
     12 C         140.4576  139.6209  164.2279 C.ar    1  UNL1       -0.0252
     13 C         141.6515  140.3554  164.7617 C.ar    1  UNL1       -0.0263
     14 C         142.6318  140.9816  163.8147 C.ar    1  UNL1       -0.0021
     15 C         142.4182  140.8734  162.3339 C.ar    1  UNL1        0.0295
     16 C         139.4773  138.9946  165.1750 C.3     1  UNL1        0.0221
     17 C         138.7995  139.8345  166.2167 C.3     1  UNL1        0.0043
     18 C         137.8192  139.2082  167.1638 C.3     1  UNL1        0.0003
     19 C         137.5167  137.7421  167.0690 C.3     1  UNL1        0.0000
     20 C         138.1946  136.9022  166.0273 C.3     1  UNL1        0.0003
     21 C         139.1748  137.5285  165.0803 C.3     1  UNL1        0.0043
     22 C         141.8653  140.4637  166.2425 C.3     1  UNL1        0.0220
     23 C         142.4193  139.2986  167.0076 C.3     1  UNL1        0.0043
     24 C         142.6330  139.4070  168.4882 C.3     1  UNL1        0.0003
     25 C         142.2927  140.6806  169.2039 C.3     1  UNL1        0.0000
     26 C         141.7386  141.8457  168.4388 C.3     1  UNL1        0.0003
     27 C         141.5249  141.7373  166.9581 C.3     1  UNL1        0.0043
     28 C         139.8165  139.2960  159.7857 C.3     1  UNL1        0.0996
     29 C         138.5422  140.0371  159.5087 C.3     1  UNL1        0.0387
     30 C         137.3421  139.8178  160.3815 C.3     1  UNL1        0.0669
     31 N         137.1785  140.6105  161.6444 N.3     1  UNL1       -0.3211
     32 H         137.9162  140.3585  162.3021 H       1  UNL1        0.1189
     33 H         136.2691  140.4060  162.0588 H       1  UNL1        0.1189
@<TRIPOS>BOND
     1     1     2    1
     2     2     3    2
     3     3     4    1
     4     4     5    2
     5     5     6    1
     6     6     7    1
     7     7     8    2
     8     7     9   am
     9     9    28    1
    10    28    29    1
    11    29    30    1
    12    30    31    1
    13     9    10    1
    14    10    11   ar
    15    11    12   ar
    16    12    16    1
    17    16    17    1
    18    17    18    1
    19    18    19    1
    20    19    20    1
    21    20    21    1
    22    12    13   ar
    23    13    22    1
    24    22    23    1
    25    23    24    1
    26    24    25    1
    27    25    26    1
    28    26    27    1
    29    13    14   ar
    30    14    15   ar
    31     6     2    1
    32    15    10   ar
    33    15     5    1
    34    21    16    1
    35    27    22    1
    36    31    32    1
    37    31    33    1
@<TRIPOS>MOLECULE
*****
 33 37 0 0 0
SMALL
GASTEIGER

@<TRIPOS>ATOM
      1 C         141.9106  141.5892  170.0088 C.3     1  UNL1        0.0501
      2 C         142.2475  141.8292  168.5669 C.2     1  UNL1        0.0727
      3 N         143.4423  142.5764  168.0532 N.2     1  UNL1       -0.1562
      4 N         143.3819  142.5731  166.5544 N.2     1  UNL1       -0.1521
      5 C         142.1496  141.8238  166.1418 C.2     1  UNL1        0.0954
      6 C         141.4485  141.3641  167.3857 C.3     1  UNL1        0.1563
      7 C         140.1732  140.5813  167.2819 C.2     1  UNL1        0.2400
      8 O         139.4720  140.1216  168.5257 O.2     1  UNL1       -0.2737
      9 N         139.5990  140.2584  165.9343 N.am    1  UNL1       -0.2580
     10 C         140.3001  140.7181  164.6906 C.ar    1  UNL1        0.0547
     11 C         139.7258  140.3951  163.3429 C.ar    1  UNL1        0.0104
     12 C         140.4269  140.8548  162.0992 C.ar    1  UNL1       -0.0252
     13 C         141.7023  141.6375  162.2029 C.ar    1  UNL1       -0.0263
     14 C         142.2765  141.9606  163.5505 C.ar    1  UNL1       -0.0021
     15 C         141.5754  141.5008  164.7943 C.ar    1  UNL1        0.0295
     16 C         139.8527  140.5318  160.7515 C.3     1  UNL1        0.0221
     17 C         138.8395  141.4461  160.1293 C.3     1  UNL1        0.0043
     18 C         138.2653  141.1231  158.7817 C.3     1  UNL1        0.0003
     19 C         138.7044  139.8857  158.0564 C.3     1  UNL1        0.0000
     20 C         139.7177  138.9714  158.6787 C.3     1  UNL1        0.0003
     21 C         140.2918  139.2944  160.0263 C.3     1  UNL1        0.0043
     22 C         142.4035  142.0973  160.9591 C.3     1  UNL1        0.0220
     23 C         143.5532  141.3057  160.4100 C.3     1  UNL1        0.0043
     24 C         144.2543  141.7655  159.1663 C.3     1  UNL1        0.0003
     25 C         143.8057  143.0170  158.4715 C.3     1  UNL1        0.0000
     26 C         142.6560  143.8086  159.0206 C.3     1  UNL1        0.0003
     27 C         141.9549  143.3488  160.2644 C.3     1  UNL1        0.0043
     28 C         138.3236  139.4756  165.8306 C.3     1  UNL1        0.0996
     29 C         138.3697  137.9910  165.6206 C.3     1  UNL1        0.0387
     30 C         137.7364  137.0719  166.6227 C.3     1  UNL1        0.0669
     31 N         136.7468  137.6098  167.6134 N.3     1  UNL1       -0.3211
     32 H         137.2173  138.2556  168.2474 H       1  UNL1        0.1189
     33 H         136.3476  136.8385  168.1482 H       1  UNL1        0.1189
@<TRIPOS>BOND
     1     1     2    1
     2     2     3    2
     3     3     4    1
     4     4     5    2
     5     5     6    1
     6     6     7    1
     7     7     8    2
     8     7     9   am
     9     9    28    1
    10    28    29    1
    11    29    30    1
    12    30    31    1
    13     9    10    1
    14    10    11   ar
    15    11    12   ar
    16    12    16    1
    17    16    17    1
    18    17    18    1
    19    18    19    1
    20    19    20    1
    21    20    21    1
    22    12    13   ar
    23    13    22    1
    24    22    23    1
    25    23    24    1
    26    24    25    1
    27    25    26    1
    28    26    27    1
    29    13    14   ar
    30    14    15   ar
    31     6     2    1
    32    15    10   ar
    33    15     5    1
    34    21    16    1
    35    27    22    1
    36    31    32    1
    37    31    33    1
@<TRIPOS>MOLECULE
*****
 33 37 0 0 0
SMALL
GASTEIGER

@<TRIPOS>ATOM
      1 C         144.4650  142.8648  165.0890 C.3     1  UNL1        0.0501
      2 C         144.3819  142.8449  163.5914 C.2     1  UNL1        0.0727
      3 N         145.4051  142.2671  162.6592 N.2     1  UNL1       -0.1562
      4 N         144.9166  142.4645  161.2548 N.2     1  UNL1       -0.1521
      5 C         143.5914  143.1643  161.3190 C.2     1  UNL1        0.0954
      6 C         143.2610  143.3994  162.7632 C.3     1  UNL1        0.1563
      7 C         141.9821  144.0881  163.1374 C.2     1  UNL1        0.2400
      8 O         141.6515  144.3233  164.5816 O.2     1  UNL1       -0.2737
      9 N         141.0336  144.5416  162.0674 N.am    1  UNL1       -0.2580
     10 C         141.3640  144.3065  160.6234 C.ar    1  UNL1        0.0547
     11 C         140.4156  144.7601  159.5534 C.ar    1  UNL1        0.0104
     12 C         140.7460  144.5249  158.1093 C.ar    1  UNL1       -0.0252
     13 C         142.0249  143.8363  157.7351 C.ar    1  UNL1       -0.0263
     14 C         142.9734  143.3827  158.8050 C.ar    1  UNL1       -0.0021
     15 C         142.6430  143.6179  160.2491 C.ar    1  UNL1        0.0295
     16 C         139.7975  144.9785  157.0394 C.3     1  UNL1        0.0221
     17 C         139.7985  146.4108  156.5942 C.3     1  UNL1        0.0043
     18 C         138.8500  146.8644  155.5242 C.3     1  UNL1        0.0003
     19 C         137.9006  145.8854  154.8995 C.3     1  UNL1        0.0000
     20 C         137.8998  144.4530  155.3446 C.3     1  UNL1        0.0003
     21 C         138.8482  143.9995  156.4146 C.3     1  UNL1        0.0043
     22 C         142.3555  143.6011  156.2910 C.3     1  UNL1        0.0220
     23 C         142.1181  142.2533  155.6770 C.3     1  UNL1        0.0043
     24 C         142.4486  142.0182  154.2330 C.3     1  UNL1        0.0003
     25 C         143.0166  143.1310  153.4027 C.3     1  UNL1        0.0000
     26 C         143.2540  144.4788  154.0167 C.3     1  UNL1        0.0003
     27 C         142.9234  144.7139  155.4608 C.3     1  UNL1        0.0043
     28 C         139.7546  145.2303  162.4417 C.3     1  UNL1        0.0996
     29 C         138.5462  144.4207  162.8081 C.3     1  UNL1        0.0387
     30 C         138.0721  144.3827  164.2307 C.3     1  UNL1        0.0669
     31 N         138.8617  145.0731  165.3030 N.3     1  UNL1       -0.3211
     32 H         139.7645  144.6108  165.4115 H       1  UNL1        0.1189
     33 H         138.3494  145.0295  166.1840 H       1  UNL1        0.1189
@<TRIPOS>BOND
     1     1     2    1
     2     2     3    2
     3     3     4    1
     4     4     5    2
     5     5     6    1
     6     6     7    1
     7     7     8    2
     8     7     9   am
     9     9    28    1
    10    28    29    1
    11    29    30    1
    12    30    31    1
    13     9    10    1
    14    10    11   ar
    15    11    12   ar
    16    12    16    1
    17    16    17    1
    18    17    18    1
    19    18    19    1
    20    19    20    1
    21    20    21    1
    22    12    13   ar
    23    13    22    1
    24    22    23    1
    25    23    24    1
    26    24    25    1
    27    25    26    1
    28    26    27    1
    29    13    14   ar
    30    14    15   ar
    31     6     2    1
    32    15    10   ar
    33    15     5    1
    34    21    16    1
    35    27    22    1
    36    31    32    1
    37    31    33    1
@<TRIPOS>MOLECULE
*****
 33 37 0 0 0
SMALL
GASTEIGER

@<TRIPOS>ATOM
      1 C         137.5147  143.9319  163.7866 C.3     1  UNL1        0.0501
      2 C         138.2794  143.6831  162.5204 C.2     1  UNL1        0.0727
      3 N         138.9162  144.7298  161.6549 N.2     1  UNL1       -0.1562
      4 N         139.5720  144.0376  160.4970 N.2     1  UNL1       -0.1521
      5 C         139.3405  142.5632  160.6468 C.2     1  UNL1        0.0954
      6 C         138.5417  142.3441  161.8974 C.3     1  UNL1        0.1563
      7 C         138.1563  140.9536  162.3072 C.2     1  UNL1        0.2400
      8 O         137.3575  140.7345  163.5578 O.2     1  UNL1       -0.2737
      9 N         138.5698  139.7822  161.4664 N.am    1  UNL1       -0.2580
     10 C         139.3686  140.0013  160.2159 C.ar    1  UNL1        0.0547
     11 C         139.7821  138.8298  159.3751 C.ar    1  UNL1        0.0104
     12 C         140.5809  139.0489  158.1247 C.ar    1  UNL1       -0.0252
     13 C         140.9663  140.4394  157.7148 C.ar    1  UNL1       -0.0263
     14 C         140.5528  141.6108  158.5555 C.ar    1  UNL1       -0.0021
     15 C         139.7540  141.3918  159.8061 C.ar    1  UNL1        0.0295
     16 C         140.9944  137.8775  157.2839 C.3     1  UNL1        0.0221
     17 C         140.0719  137.3519  156.2244 C.3     1  UNL1        0.0043
     18 C         140.4854  136.1805  155.3836 C.3     1  UNL1        0.0003
     19 C         141.8214  135.5347  155.6024 C.3     1  UNL1        0.0000
     20 C         142.7439  136.0603  156.6620 C.3     1  UNL1        0.0003
     21 C         142.3304  137.2317  157.5028 C.3     1  UNL1        0.0043
     22 C         141.7651  140.6586  156.4643 C.3     1  UNL1        0.0220
     23 C         143.2640  140.6631  156.5228 C.3     1  UNL1        0.0043
     24 C         144.0627  140.8822  155.2723 C.3     1  UNL1        0.0003
     25 C         143.3626  141.0969  153.9631 C.3     1  UNL1        0.0000
     26 C         141.8638  141.0924  153.9046 C.3     1  UNL1        0.0003
     27 C         141.0650  140.8732  155.1551 C.3     1  UNL1        0.0043
     28 C         138.1844  138.3916  161.8763 C.3     1  UNL1        0.0996
     29 C         138.9890  137.6651  162.9130 C.3     1  UNL1        0.0387
     30 C         140.4545  137.9491  163.0597 C.3     1  UNL1        0.0669
     31 N         141.4623  137.0393  162.4218 N.3     1  UNL1       -0.3211
     32 H         141.4209  136.1218  162.8654 H       1  UNL1        0.1189
     33 H         142.3965  137.4316  162.5386 H       1  UNL1        0.1189
@<TRIPOS>BOND
     1     1     2    1
     2     2     3    2
     3     3     4    1
     4     4     5    2
     5     5     6    1
     6     6     7    1
     7     7     8    2
     8     7     9   am
     9     9    28    1
    10    28    29    1
    11    29    30    1
    12    30    31    1
    13     9    10    1
    14    10    11   ar
    15    11    12   ar
    16    12    16    1
    17    16    17    1
    18    17    18    1
    19    18    19    1
    20    19    20    1
    21    20    21    1
    22    12    13   ar
    23    13    22    1
    24    22    23    1
    25    23    24    1
    26    24    25    1
    27    25    26    1
    28    26    27    1
    29    13    14   ar
    30    14    15   ar
    31     6     2    1
    32    15    10   ar
    33    15     5    1
    34    21    16    1
    35    27    22    1
    36    31    32    1
    37    31    33    1
