@<TRIPOS>MOLECULE
*****
 30 33 0 0 0
SMALL
GASTEIGER

@<TRIPOS>ATOM
      1 N         138.4987  140.3351  163.7170 N.3     1  UNL1       -0.2679
      2 C         138.7530  141.7839  164.0111 C.3     1  UNL1        0.0978
      3 C         137.6213  142.6735  164.4327 C.3     1  UNL1        0.0224
      4 C         137.8756  144.1222  164.7269 C.3     1  UNL1        0.0065
      5 C         139.2616  144.6813  164.5995 C.3     1  UNL1        0.0277
      6 C         140.3933  143.7917  164.1779 C.ar    1  UNL1       -0.0073
      7 C         141.7794  144.3509  164.0505 C.ar    1  UNL1       -0.0015
      8 C         142.9112  143.4613  163.6290 C.ar    1  UNL1        0.0203
      9 C         142.6569  142.0125  163.3348 C.ar    1  UNL1        0.0985
     10 N         141.2709  141.4534  163.4622 N.ar    1  UNL1       -0.2471
     11 C         140.1390  142.3430  163.8838 C.ar    1  UNL1        0.0695
     12 C         138.1555  139.9020  162.3225 C.3     1  UNL1        0.0725
     13 C         138.3544  138.4734  161.9106 C.3     1  UNL1        0.0187
     14 C         139.6550  138.0432  161.2995 C.3     1  UNL1        0.0183
     15 N         141.1274  136.9249  163.1247 N.3     1  UNL1       -0.3211
     16 C         140.9040  138.0251  162.1298 C.3     1  UNL1        0.0652
     17 H         142.0201  137.0693  163.5966 H       1  UNL1        0.1189
     18 H         141.1398  136.0267  162.6413 H       1  UNL1        0.1189
     19 C         138.5877  139.3196  164.8173 C.3     1  UNL1        0.0886
     20 C         139.6070  139.4805  165.9059 C.3     1  UNL1        0.0748
     21 C         139.1759  139.8930  167.2821 C.3     1  UNL1        0.0432
     22 C         140.1952  140.0540  168.3707 C.ar    1  UNL1       -0.0234
     23 C         139.7641  140.4665  169.7469 C.ar    1  UNL1       -0.0045
     24 C         140.7834  140.6274  170.8354 C.ar    1  UNL1       -0.0003
     25 C         142.2339  140.3758  170.5478 C.ar    1  UNL1       -0.0003
     26 C         142.6651  139.9633  169.1717 C.ar    1  UNL1       -0.0032
     27 C         141.6458  139.8024  168.0831 C.ar    1  UNL1       -0.0103
     28 C         142.0769  139.3899  166.7069 C.3     1  UNL1        0.0953
     29 N         141.0576  139.2289  165.6183 N.3     1  UNL1       -0.2934
     30 H         141.1296  138.2668  165.2874 H       1  UNL1        0.1236
@<TRIPOS>BOND
     1    15    16    1
     2    16    14    1
     3    14    13    1
     4    13    12    1
     5    12     1    1
     6     1    19    1
     7    20    19    1
     8    20    21    1
     9    21    22    1
    10    22    23   ar
    11    23    24   ar
    12    24    25   ar
    13    25    26   ar
    14    26    27   ar
    15    27    28    1
    16    28    29    1
    17     2     1    1
    18     2     3    1
    19     3     4    1
    20     4     5    1
    21     5     6    1
    22     6     7   ar
    23     7     8   ar
    24     8     9   ar
    25     9    10   ar
    26    10    11   ar
    27    29    20    1
    28    11     2    1
    29    27    22   ar
    30    11     6   ar
    31    15    17    1
    32    15    18    1
    33    29    30    1
@<TRIPOS>MOLECULE
*****
 30 33 0 0 0
SMALL
GASTEIGER

@<TRIPOS>ATOM
      1 N         141.1890  140.6335  167.6405 N.3     1  UNL1       -0.2679
      2 C         140.2997  139.6968  166.8776 C.3     1  UNL1        0.0978
      3 C         138.9065  139.4240  167.3620 C.3     1  UNL1        0.0224
      4 C         138.0173  138.4874  166.5991 C.3     1  UNL1        0.0065
      5 C         138.5211  137.8236  165.3520 C.3     1  UNL1        0.0277
      6 C         139.9143  138.0964  164.8676 C.ar    1  UNL1       -0.0073
      7 C         140.4182  137.4326  163.6204 C.ar    1  UNL1       -0.0015
      8 C         141.8114  137.7055  163.1361 C.ar    1  UNL1        0.0203
      9 C         142.7006  138.6421  163.8989 C.ar    1  UNL1        0.0985
     10 N         142.1968  139.3059  165.1461 N.ar    1  UNL1       -0.2471
     11 C         140.8036  139.0330  165.6305 C.ar    1  UNL1        0.0695
     12 C         142.2045  140.0885  168.6005 C.3     1  UNL1        0.0725
     13 C         141.7653  139.5424  169.9268 C.3     1  UNL1        0.0187
     14 C         140.6077  140.1660  170.6486 C.3     1  UNL1        0.0183
     15 N         142.0672  142.0306  171.7179 N.3     1  UNL1       -0.3211
     16 C         140.7370  141.5460  171.2221 C.3     1  UNL1        0.0652
     17 H         141.9720  142.9827  172.0713 H       1  UNL1        0.1189
     18 H         142.7407  142.0180  170.9519 H       1  UNL1        0.1189
     19 C         141.0628  142.1150  167.4432 C.3     1  UNL1        0.0886
     20 C         141.2454  142.7081  166.0775 C.3     1  UNL1        0.0748
     21 C         140.1668  143.5627  165.4807 C.3     1  UNL1        0.0432
     22 C         140.3494  144.1558  164.1150 C.ar    1  UNL1       -0.0234
     23 C         139.2709  145.0105  163.5182 C.ar    1  UNL1       -0.0045
     24 C         139.4535  145.6035  162.1525 C.ar    1  UNL1       -0.0003
     25 C         140.7147  145.3419  161.3838 C.ar    1  UNL1       -0.0003
     26 C         141.7933  144.4872  161.9806 C.ar    1  UNL1       -0.0032
     27 C         141.6106  143.8942  163.3462 C.ar    1  UNL1       -0.0103
     28 C         142.6892  143.0395  163.9432 C.3     1  UNL1        0.0953
     29 N         142.5066  142.4465  165.3088 N.3     1  UNL1       -0.2934
     30 H         143.2776  142.7871  165.8832 H       1  UNL1        0.1236
@<TRIPOS>BOND
     1    15    16    1
     2    16    14    1
     3    14    13    1
     4    13    12    1
     5    12     1    1
     6     1    19    1
     7    20    19    1
     8    20    21    1
     9    21    22    1
    10    22    23   ar
    11    23    24   ar
    12    24    25   ar
    13    25    26   ar
    14    26    27   ar
    15    27    28    1
    16    28    29    1
    17     2     1    1
    18     2     3    1
    19     3     4    1
    20     4     5    1
    21     5     6    1
    22     6     7   ar
    23     7     8   ar
    24     8     9   ar
    25     9    10   ar
    26    10    11   ar
    27    29    20    1
    28    11     2    1
    29    27    22   ar
    30    11     6   ar
    31    15    17    1
    32    15    18    1
    33    29    30    1
@<TRIPOS>MOLECULE
*****
 30 33 0 0 0
SMALL
GASTEIGER

@<TRIPOS>ATOM
      1 N         140.1142  139.2706  163.2153 N.3     1  UNL1       -0.2679
      2 C         139.5431  140.3622  162.3596 C.3     1  UNL1        0.0978
      3 C         139.4256  140.1689  160.8768 C.3     1  UNL1        0.0224
      4 C         138.8545  141.2605  160.0211 C.3     1  UNL1        0.0065
      5 C         138.4009  142.5454  160.6482 C.3     1  UNL1        0.0277
      6 C         138.5184  142.7387  162.1310 C.ar    1  UNL1       -0.0073
      7 C         138.0649  144.0236  162.7581 C.ar    1  UNL1       -0.0015
      8 C         138.1824  144.2169  164.2409 C.ar    1  UNL1        0.0203
      9 C         138.7534  143.1253  165.0967 C.ar    1  UNL1        0.0985
     10 N         139.2070  141.8404  164.4696 N.ar    1  UNL1       -0.2471
     11 C         139.0895  141.6471  162.9867 C.ar    1  UNL1        0.0695
     12 C         139.2442  138.1316  163.6577 C.3     1  UNL1        0.0725
     13 C         138.9697  137.9203  165.1172 C.3     1  UNL1        0.0187
     14 C         138.1081  138.8928  165.8667 C.3     1  UNL1        0.0183
     15 N         136.7193  137.4858  167.5524 N.3     1  UNL1       -0.3211
     16 C         137.6917  138.5941  167.2764 C.3     1  UNL1        0.0652
     17 H         136.5506  137.4237  168.5565 H       1  UNL1        0.1189
     18 H         137.1056  136.6032  167.2173 H       1  UNL1        0.1189
     19 C         141.5553  139.3180  163.6287 C.3     1  UNL1        0.0886
     20 C         141.9581  140.0754  164.8593 C.3     1  UNL1        0.0748
     21 C         142.0265  139.3736  166.1831 C.3     1  UNL1        0.0432
     22 C         142.4293  140.1310  167.4137 C.ar    1  UNL1       -0.0234
     23 C         142.4978  139.4292  168.7375 C.ar    1  UNL1       -0.0045
     24 C         142.9006  140.1866  169.9680 C.ar    1  UNL1       -0.0003
     25 C         143.2348  141.6459  169.8745 C.ar    1  UNL1       -0.0003
     26 C         143.1663  142.3477  168.5507 C.ar    1  UNL1       -0.0032
     27 C         142.7636  141.5903  167.3202 C.ar    1  UNL1       -0.0103
     28 C         142.6951  142.2922  165.9963 C.3     1  UNL1        0.0953
     29 N         142.2923  141.5347  164.7658 N.3     1  UNL1       -0.2934
     30 H         143.0631  141.6184  164.1031 H       1  UNL1        0.1236
@<TRIPOS>BOND
     1    15    16    1
     2    16    14    1
     3    14    13    1
     4    13    12    1
     5    12     1    1
     6     1    19    1
     7    20    19    1
     8    20    21    1
     9    21    22    1
    10    22    23   ar
    11    23    24   ar
    12    24    25   ar
    13    25    26   ar
    14    26    27   ar
    15    27    28    1
    16    28    29    1
    17     2     1    1
    18     2     3    1
    19     3     4    1
    20     4     5    1
    21     5     6    1
    22     6     7   ar
    23     7     8   ar
    24     8     9   ar
    25     9    10   ar
    26    10    11   ar
    27    29    20    1
    28    11     2    1
    29    27    22   ar
    30    11     6   ar
    31    15    17    1
    32    15    18    1
    33    29    30    1
@<TRIPOS>MOLECULE
*****
 30 33 0 0 0
SMALL
GASTEIGER

@<TRIPOS>ATOM
      1 N         142.6716  139.1058  163.7888 N.3     1  UNL1       -0.2679
      2 C         143.3927  140.4153  163.6652 C.3     1  UNL1        0.0978
      3 C         144.8650  140.4366  163.3791 C.3     1  UNL1        0.0224
      4 C         145.5861  141.7461  163.2555 C.3     1  UNL1        0.0065
      5 C         144.8349  143.0342  163.4180 C.3     1  UNL1        0.0277
      6 C         143.3626  143.0128  163.7041 C.ar    1  UNL1       -0.0073
      7 C         142.6113  144.3010  163.8666 C.ar    1  UNL1       -0.0015
      8 C         141.1390  144.2796  164.1527 C.ar    1  UNL1        0.0203
      9 C         140.4180  142.9701  164.2763 C.ar    1  UNL1        0.0985
     10 N         141.1691  141.6820  164.1138 N.ar    1  UNL1       -0.2471
     11 C         142.6415  141.7034  163.8277 C.ar    1  UNL1        0.0695
     12 C         141.9965  138.5054  162.5915 C.3     1  UNL1        0.0725
     13 C         140.8967  137.5020  162.7751 C.3     1  UNL1        0.0187
     14 C         139.4958  137.8402  162.3593 C.3     1  UNL1        0.0183
     15 N         138.6165  139.7979  163.8237 N.3     1  UNL1       -0.3211
     16 C         138.9972  139.2497  162.4803 C.3     1  UNL1        0.0652
     17 H         138.3020  140.7627  163.7205 H       1  UNL1        0.1189
     18 H         139.4253  139.7685  164.4446 H       1  UNL1        0.1189
     19 C         142.6256  138.3967  165.1098 C.3     1  UNL1        0.0886
     20 C         141.9197  139.0256  166.2745 C.3     1  UNL1        0.0748
     21 C         142.6716  139.3154  167.5396 C.3     1  UNL1        0.0432
     22 C         141.9657  139.9443  168.7043 C.ar    1  UNL1       -0.0234
     23 C         142.7175  140.2341  169.9695 C.ar    1  UNL1       -0.0045
     24 C         142.0116  140.8629  171.1340 C.ar    1  UNL1       -0.0003
     25 C         140.5539  141.2019  171.0334 C.ar    1  UNL1       -0.0003
     26 C         139.8021  140.9121  169.7682 C.ar    1  UNL1       -0.0032
     27 C         140.5080  140.2833  168.6037 C.ar    1  UNL1       -0.0103
     28 C         139.7561  139.9934  167.3384 C.3     1  UNL1        0.0953
     29 N         140.4620  139.3645  166.1739 N.3     1  UNL1       -0.2934
     30 H         140.3626  140.0067  165.3876 H       1  UNL1        0.1236
@<TRIPOS>BOND
     1    15    16    1
     2    16    14    1
     3    14    13    1
     4    13    12    1
     5    12     1    1
     6     1    19    1
     7    20    19    1
     8    20    21    1
     9    21    22    1
    10    22    23   ar
    11    23    24   ar
    12    24    25   ar
    13    25    26   ar
    14    26    27   ar
    15    27    28    1
    16    28    29    1
    17     2     1    1
    18     2     3    1
    19     3     4    1
    20     4     5    1
    21     5     6    1
    22     6     7   ar
    23     7     8   ar
    24     8     9   ar
    25     9    10   ar
    26    10    11   ar
    27    29    20    1
    28    11     2    1
    29    27    22   ar
    30    11     6   ar
    31    15    17    1
    32    15    18    1
    33    29    30    1
@<TRIPOS>MOLECULE
*****
 30 33 0 0 0
SMALL
GASTEIGER

@<TRIPOS>ATOM
      1 N         141.7996  142.0334  167.1695 N.3     1  UNL1       -0.2679
      2 C         140.6056  141.4231  166.4974 C.3     1  UNL1        0.0978
      3 C         140.3027  139.9660  166.6848 C.3     1  UNL1        0.0224
      4 C         139.1087  139.3557  166.0127 C.3     1  UNL1        0.0065
      5 C         138.2175  140.2024  165.1531 C.3     1  UNL1        0.0277
      6 C         138.5204  141.6595  164.9657 C.ar    1  UNL1       -0.0073
      7 C         137.6292  142.5063  164.1061 C.ar    1  UNL1       -0.0015
      8 C         137.9321  143.9633  163.9187 C.ar    1  UNL1        0.0203
      9 C         139.1262  144.5737  164.5908 C.ar    1  UNL1        0.0985
     10 N         140.0173  143.7270  165.4503 N.ar    1  UNL1       -0.2471
     11 C         139.7144  142.2698  165.6378 C.ar    1  UNL1        0.0695
     12 C         141.7013  142.5046  168.5901 C.3     1  UNL1        0.0725
     13 C         140.3576  142.7782  169.1983 C.3     1  UNL1        0.0187
     14 C         139.8267  141.8825  170.2780 C.3     1  UNL1        0.0183
     15 N         139.7091  139.4688  171.2321 N.3     1  UNL1       -0.3211
     16 C         140.4758  140.5556  170.5383 C.3     1  UNL1        0.0652
     17 H         140.2997  138.6424  171.3252 H       1  UNL1        0.1189
     18 H         138.8806  139.2348  170.6851 H       1  UNL1        0.1189
     19 C         143.0920  142.1726  166.4210 C.3     1  UNL1        0.0886
     20 C         143.1546  141.8291  164.9621 C.3     1  UNL1        0.0748
     21 C         143.5106  140.4362  164.5342 C.3     1  UNL1        0.0432
     22 C         143.5731  140.0927  163.0753 C.ar    1  UNL1       -0.0234
     23 C         143.9291  138.6999  162.6474 C.ar    1  UNL1       -0.0045
     24 C         143.9916  138.3565  161.1886 C.ar    1  UNL1       -0.0003
     25 C         143.6982  139.4059  160.1578 C.ar    1  UNL1       -0.0003
     26 C         143.3423  140.7987  160.5857 C.ar    1  UNL1       -0.0032
     27 C         143.2797  141.1422  162.0445 C.ar    1  UNL1       -0.0103
     28 C         142.9237  142.5351  162.4725 C.3     1  UNL1        0.0953
     29 N         142.8612  142.8785  163.9313 N.3     1  UNL1       -0.2934
     30 H         141.9158  143.2149  164.1143 H       1  UNL1        0.1236
@<TRIPOS>BOND
     1    15    16    1
     2    16    14    1
     3    14    13    1
     4    13    12    1
     5    12     1    1
     6     1    19    1
     7    20    19    1
     8    20    21    1
     9    21    22    1
    10    22    23   ar
    11    23    24   ar
    12    24    25   ar
    13    25    26   ar
    14    26    27   ar
    15    27    28    1
    16    28    29    1
    17     2     1    1
    18     2     3    1
    19     3     4    1
    20     4     5    1
    21     5     6    1
    22     6     7   ar
    23     7     8   ar
    24     8     9   ar
    25     9    10   ar
    26    10    11   ar
    27    29    20    1
    28    11     2    1
    29    27    22   ar
    30    11     6   ar
    31    15    17    1
    32    15    18    1
    33    29    30    1
@<TRIPOS>MOLECULE
*****
 30 33 0 0 0
SMALL
GASTEIGER

@<TRIPOS>ATOM
      1 N         142.3637  138.5993  163.9804 N.3     1  UNL1       -0.2679
      2 C         140.9265  138.7730  164.3733 C.3     1  UNL1        0.0978
      3 C         140.1441  137.6030  164.8918 C.3     1  UNL1        0.0224
      4 C         138.7069  137.7767  165.2847 C.3     1  UNL1        0.0065
      5 C         138.0522  139.1204  165.1591 C.3     1  UNL1        0.0277
      6 C         138.8346  140.2904  164.6406 C.ar    1  UNL1       -0.0073
      7 C         138.1799  141.6341  164.5149 C.ar    1  UNL1       -0.0015
      8 C         138.9623  142.8041  163.9964 C.ar    1  UNL1        0.0203
      9 C         140.3995  142.6304  163.6035 C.ar    1  UNL1        0.0985
     10 N         141.0542  141.2867  163.7291 N.ar    1  UNL1       -0.2471
     11 C         140.2718  140.1167  164.2477 C.ar    1  UNL1        0.0695
     12 C         142.7138  138.1766  162.5845 C.3     1  UNL1        0.0725
     13 C         143.9763  138.6734  161.9447 C.3     1  UNL1        0.0187
     14 C         144.1045  140.1177  161.5606 C.3     1  UNL1        0.0183
     15 N         145.6466  142.1653  161.9838 N.3     1  UNL1       -0.3211
     16 C         144.7390  141.0922  162.5080 C.3     1  UNL1        0.0652
     17 H         145.9861  142.7328  162.7604 H       1  UNL1        0.1189
     18 H         145.1325  142.7561  161.3303 H       1  UNL1        0.1189
     19 C         143.4508  138.8484  164.9835 C.3     1  UNL1        0.0886
     20 C         143.2232  139.8083  166.1134 C.3     1  UNL1        0.0748
     21 C         142.8455  139.2931  167.4706 C.3     1  UNL1        0.0432
     22 C         142.6178  140.2531  168.6006 C.ar    1  UNL1       -0.0234
     23 C         142.2401  139.7379  169.9577 C.ar    1  UNL1       -0.0045
     24 C         142.0125  140.6978  171.0876 C.ar    1  UNL1       -0.0003
     25 C         142.1626  142.1729  170.8604 C.ar    1  UNL1       -0.0003
     26 C         142.5403  142.6880  169.5032 C.ar    1  UNL1       -0.0032
     27 C         142.7679  141.7281  168.3733 C.ar    1  UNL1       -0.0103
     28 C         143.1456  142.2433  167.0161 C.3     1  UNL1        0.0953
     29 N         143.3733  141.2834  165.8862 N.3     1  UNL1       -0.2934
     30 H         144.3272  141.4352  165.5585 H       1  UNL1        0.1236
@<TRIPOS>BOND
     1    15    16    1
     2    16    14    1
     3    14    13    1
     4    13    12    1
     5    12     1    1
     6     1    19    1
     7    20    19    1
     8    20    21    1
     9    21    22    1
    10    22    23   ar
    11    23    24   ar
    12    24    25   ar
    13    25    26   ar
    14    26    27   ar
    15    27    28    1
    16    28    29    1
    17     2     1    1
    18     2     3    1
    19     3     4    1
    20     4     5    1
    21     5     6    1
    22     6     7   ar
    23     7     8   ar
    24     8     9   ar
    25     9    10   ar
    26    10    11   ar
    27    29    20    1
    28    11     2    1
    29    27    22   ar
    30    11     6   ar
    31    15    17    1
    32    15    18    1
    33    29    30    1
@<TRIPOS>MOLECULE
*****
 30 33 0 0 0
SMALL
GASTEIGER

@<TRIPOS>ATOM
      1 N         142.7612  140.2088  166.9364 N.3     1  UNL1       -0.2679
      2 C         142.8496  139.5886  165.5735 C.3     1  UNL1        0.0978
      3 C         144.1458  139.6170  164.8192 C.3     1  UNL1        0.0224
      4 C         144.2342  138.9968  163.4563 C.3     1  UNL1        0.0065
      5 C         143.0265  138.3481  162.8477 C.3     1  UNL1        0.0277
      6 C         141.7303  138.3196  163.6020 C.ar    1  UNL1       -0.0073
      7 C         140.5224  137.6709  162.9934 C.ar    1  UNL1       -0.0015
      8 C         139.2262  137.6425  163.7477 C.ar    1  UNL1        0.0203
      9 C         139.1378  138.2627  165.1106 C.ar    1  UNL1        0.0985
     10 N         140.3456  138.9114  165.7192 N.ar    1  UNL1       -0.2471
     11 C         141.6418  138.9399  164.9649 C.ar    1  UNL1        0.0695
     12 C         142.7055  139.3364  168.1553 C.3     1  UNL1        0.0725
     13 C         141.8017  139.6986  169.2963 C.3     1  UNL1        0.0187
     14 C         140.3573  140.0110  169.0390 C.3     1  UNL1        0.0183
     15 N         138.1326  139.9423  170.3792 N.3     1  UNL1       -0.3211
     16 C         139.4931  140.5308  170.1493 C.3     1  UNL1        0.0652
     17 H         137.6880  140.4115  171.1682 H       1  UNL1        0.1189
     18 H         138.2228  138.9468  170.5825 H       1  UNL1        0.1189
     19 C         142.7284  141.7015  167.0805 C.3     1  UNL1        0.0886
     20 C         142.0869  142.5436  166.0177 C.3     1  UNL1        0.0748
     21 C         140.5945  142.5534  165.8677 C.3     1  UNL1        0.0432
     22 C         139.9530  143.3956  164.8050 C.ar    1  UNL1       -0.0234
     23 C         138.4606  143.4053  164.6550 C.ar    1  UNL1       -0.0045
     24 C         137.8192  144.2475  163.5923 C.ar    1  UNL1       -0.0003
     25 C         138.6702  145.0798  162.6796 C.ar    1  UNL1       -0.0003
     26 C         140.1626  145.0700  162.8296 C.ar    1  UNL1       -0.0032
     27 C         140.8040  144.2279  163.8923 C.ar    1  UNL1       -0.0103
     28 C         142.2965  144.2181  164.0424 C.3     1  UNL1        0.0953
     29 N         142.9379  143.3760  165.1050 N.3     1  UNL1       -0.2934
     30 H         143.4743  144.0089  165.6984 H       1  UNL1        0.1236
@<TRIPOS>BOND
     1    15    16    1
     2    16    14    1
     3    14    13    1
     4    13    12    1
     5    12     1    1
     6     1    19    1
     7    20    19    1
     8    20    21    1
     9    21    22    1
    10    22    23   ar
    11    23    24   ar
    12    24    25   ar
    13    25    26   ar
    14    26    27   ar
    15    27    28    1
    16    28    29    1
    17     2     1    1
    18     2     3    1
    19     3     4    1
    20     4     5    1
    21     5     6    1
    22     6     7   ar
    23     7     8   ar
    24     8     9   ar
    25     9    10   ar
    26    10    11   ar
    27    29    20    1
    28    11     2    1
    29    27    22   ar
    30    11     6   ar
    31    15    17    1
    32    15    18    1
    33    29    30    1
@<TRIPOS>MOLECULE
*****
 30 33 0 0 0
SMALL
GASTEIGER

@<TRIPOS>ATOM
      1 N         141.7348  140.4526  163.2874 N.3     1  UNL1       -0.2679
      2 C         141.7200  141.9348  163.5174 C.3     1  UNL1        0.0978
      3 C         142.9889  142.7253  163.3964 C.3     1  UNL1        0.0224
      4 C         142.9741  144.2075  163.6265 C.3     1  UNL1        0.0065
      5 C         141.6902  144.8991  163.9776 C.3     1  UNL1        0.0277
      6 C         140.4212  144.1086  164.0986 C.ar    1  UNL1       -0.0073
      7 C         139.1373  144.8002  164.4496 C.ar    1  UNL1       -0.0015
      8 C         137.8683  144.0097  164.5706 C.ar    1  UNL1        0.0203
      9 C         137.8832  142.5275  164.3406 C.ar    1  UNL1        0.0985
     10 N         139.1670  141.8359  163.9895 N.ar    1  UNL1       -0.2471
     11 C         140.4361  142.6264  163.8685 C.ar    1  UNL1        0.0695
     12 C         141.3829  139.8995  161.9383 C.3     1  UNL1        0.0725
     13 C         140.9976  138.4567  161.7964 C.3     1  UNL1        0.0187
     14 C         139.5549  138.0778  161.6386 C.3     1  UNL1        0.0183
     15 N         138.9325  137.6282  164.1207 N.3     1  UNL1       -0.3211
     16 C         138.6069  138.2390  162.7898 C.3     1  UNL1        0.0652
     17 H         138.1840  137.8352  164.7820 H       1  UNL1        0.1189
     18 H         139.8096  138.0164  164.4675 H       1  UNL1        0.1189
     19 C         142.1016  139.5236  164.4064 C.3     1  UNL1        0.0886
     20 C         141.5148  139.7259  165.7720 C.3     1  UNL1        0.0748
     21 C         142.4146  139.9812  166.9447 C.3     1  UNL1        0.0432
     22 C         141.8278  140.1834  168.3103 C.ar    1  UNL1       -0.0234
     23 C         142.7276  140.4387  169.4829 C.ar    1  UNL1       -0.0045
     24 C         142.1408  140.6410  170.8485 C.ar    1  UNL1       -0.0003
     25 C         140.6542  140.5880  171.0413 C.ar    1  UNL1       -0.0003
     26 C         139.7544  140.3327  169.8687 C.ar    1  UNL1       -0.0032
     27 C         140.3412  140.1304  168.5032 C.ar    1  UNL1       -0.0103
     28 C         139.4414  139.8751  167.3304 C.3     1  UNL1        0.0953
     29 N         140.0282  139.6729  165.9649 N.3     1  UNL1       -0.2934
     30 H         139.6274  140.3919  165.3627 H       1  UNL1        0.1236
@<TRIPOS>BOND
     1    15    16    1
     2    16    14    1
     3    14    13    1
     4    13    12    1
     5    12     1    1
     6     1    19    1
     7    20    19    1
     8    20    21    1
     9    21    22    1
    10    22    23   ar
    11    23    24   ar
    12    24    25   ar
    13    25    26   ar
    14    26    27   ar
    15    27    28    1
    16    28    29    1
    17     2     1    1
    18     2     3    1
    19     3     4    1
    20     4     5    1
    21     5     6    1
    22     6     7   ar
    23     7     8   ar
    24     8     9   ar
    25     9    10   ar
    26    10    11   ar
    27    29    20    1
    28    11     2    1
    29    27    22   ar
    30    11     6   ar
    31    15    17    1
    32    15    18    1
    33    29    30    1
@<TRIPOS>MOLECULE
*****
 30 33 0 0 0
SMALL
GASTEIGER

@<TRIPOS>ATOM
      1 N         141.9174  141.7662  167.7142 N.3     1  UNL1       -0.2679
      2 C         142.6598  140.8185  166.8193 C.3     1  UNL1        0.0978
      3 C         142.6207  139.3439  167.0912 C.3     1  UNL1        0.0224
      4 C         143.3631  138.3963  166.1963 C.3     1  UNL1        0.0065
      5 C         144.1445  138.9233  165.0295 C.3     1  UNL1        0.0277
      6 C         144.1836  140.3978  164.7575 C.ar    1  UNL1       -0.0073
      7 C         144.9651  140.9249  163.5906 C.ar    1  UNL1       -0.0015
      8 C         145.0041  142.3995  163.3186 C.ar    1  UNL1        0.0203
      9 C         144.2618  143.3471  164.2135 C.ar    1  UNL1        0.0985
     10 N         143.4803  142.8201  165.3804 N.ar    1  UNL1       -0.2471
     11 C         143.4412  141.3455  165.6524 C.ar    1  UNL1        0.0695
     12 C         142.6238  142.4207  168.8642 C.3     1  UNL1        0.0725
     13 C         143.2651  141.5791  169.9275 C.3     1  UNL1        0.0187
     14 C         142.4587  140.5412  170.6505 C.3     1  UNL1        0.0183
     15 N         140.7755  142.0441  171.9382 N.3     1  UNL1       -0.3211
     16 C         141.0540  140.8469  171.0784 C.3     1  UNL1        0.0652
     17 H         139.7755  142.0985  172.1317 H       1  UNL1        0.1189
     18 H         141.0742  142.8892  171.4514 H       1  UNL1        0.1189
     19 C         140.4687  142.0593  167.4591 C.3     1  UNL1        0.0886
     20 C         139.8043  141.5356  166.2203 C.3     1  UNL1        0.0748
     21 C         139.7998  142.3588  164.9665 C.3     1  UNL1        0.0432
     22 C         139.1354  141.8351  163.7278 C.ar    1  UNL1       -0.0234
     23 C         139.1309  142.6583  162.4739 C.ar    1  UNL1       -0.0045
     24 C         138.4665  142.1345  161.2353 C.ar    1  UNL1       -0.0003
     25 C         137.8067  140.7876  161.2505 C.ar    1  UNL1       -0.0003
     26 C         137.8112  139.9643  162.5043 C.ar    1  UNL1       -0.0032
     27 C         138.4755  140.4881  163.7430 C.ar    1  UNL1       -0.0103
     28 C         138.4800  139.6648  164.9969 C.3     1  UNL1        0.0953
     29 N         139.1444  140.1886  166.2356 N.3     1  UNL1       -0.2934
     30 H         139.8627  139.5117  166.4931 H       1  UNL1        0.1236
@<TRIPOS>BOND
     1    15    16    1
     2    16    14    1
     3    14    13    1
     4    13    12    1
     5    12     1    1
     6     1    19    1
     7    20    19    1
     8    20    21    1
     9    21    22    1
    10    22    23   ar
    11    23    24   ar
    12    24    25   ar
    13    25    26   ar
    14    26    27   ar
    15    27    28    1
    16    28    29    1
    17     2     1    1
    18     2     3    1
    19     3     4    1
    20     4     5    1
    21     5     6    1
    22     6     7   ar
    23     7     8   ar
    24     8     9   ar
    25     9    10   ar
    26    10    11   ar
    27    29    20    1
    28    11     2    1
    29    27    22   ar
    30    11     6   ar
    31    15    17    1
    32    15    18    1
    33    29    30    1
