@<TRIPOS>MOLECULE
*****
 37 40 0 0 0
SMALL
GASTEIGER

@<TRIPOS>ATOM
      1 C         143.2690  140.1017  161.6434 C.3     1  UNL1        0.0954
      2 C         143.1598  139.6486  160.2176 C.ar    1  UNL1       -0.0045
      3 C         143.5010  140.5922  159.1026 C.ar    1  UNL1       -0.0027
      4 C         143.3918  140.1391  157.6768 C.ar    1  UNL1       -0.0003
      5 C         142.9416  138.7423  157.3661 C.ar    1  UNL1       -0.0000
      6 C         142.6005  137.7988  158.4812 C.ar    1  UNL1       -0.0003
      7 C         142.7096  138.2519  159.9069 C.ar    1  UNL1       -0.0027
      8 N         142.0981  140.7572  162.3137 N.am    1  UNL1       -0.3022
      9 C         141.9590  142.2505  162.2888 C.2     1  UNL1        0.2222
     10 O         142.9908  143.0884  161.5935 O.2     1  UNL1       -0.2751
     11 H         141.4208  140.2073  162.7701 H       1  UNL1        0.1497
     12 C         140.7881  142.9060  162.9591 C.3     1  UNL1        0.0769
     13 C         139.3919  142.5772  162.5202 C.3     1  UNL1        0.0147
     14 C         138.2210  143.2327  163.1906 C.3     1  UNL1        0.0671
     15 C         138.4463  144.2169  164.2998 C.3     1  UNL1        0.2640
     16 F         138.1511  145.2063  165.3879 F       1  UNL1       -0.2043
     17 F         136.9477  144.2317  164.2388 F       1  UNL1       -0.2043
     18 C         139.8424  144.5457  164.7387 C.3     1  UNL1        0.0671
     19 C         141.0133  143.8903  164.0684 C.3     1  UNL1        0.0147
     20 C         144.5489  139.8993  162.3988 C.3     1  UNL1        0.0401
     21 C         144.8019  140.6640  163.6642 C.3     1  UNL1        0.0595
     22 C         145.9835  141.5829  163.7618 C.3     1  UNL1        0.0174
     23 C         142.0162  140.2010  167.1678 C.3     1  UNL1        0.0905
     24 C         142.4556  138.9932  166.3943 C.3     1  UNL1        0.0400
     25 C         143.3841  139.1476  165.2265 C.3     1  UNL1        0.0740
     26 N         143.8733  140.5096  164.8321 N.3     1  UNL1       -0.2738
     27 C         143.4340  141.7174  165.6056 C.3     1  UNL1        0.0740
     28 C         142.5054  141.5630  166.7735 C.3     1  UNL1        0.0400
     29 C         142.8614  140.3096  170.3180 C.3     1  UNL1        0.0738
     30 C         141.4761  140.0966  169.7837 C.ar    1  UNL1        0.1433
     31 N         140.2361  139.8961  170.6035 N.ar    1  UNL1       -0.1337
     32 N         139.0812  139.7223  169.6622 N.ar    1  UNL1       -0.1337
     33 C         139.6074  139.8153  168.2607 C.ar    1  UNL1        0.1425
     34 N         141.0876  140.0466  168.3357 N.ar    1  UNL1       -0.3039
     35 C         138.7960  139.6977  167.0046 C.3     1  UNL1        0.0588
     36 C         137.8235  138.5672  166.8431 C.3     1  UNL1        0.0080
     37 C         138.9571  140.7106  165.9101 C.3     1  UNL1        0.0080
@<TRIPOS>BOND
     1    29    30    1
     2    30    31   ar
     3    31    32   ar
     4    32    33   ar
     5    33    35    1
     6    35    36    1
     7    35    37    1
     8    33    34   ar
     9    34    23    1
    10    23    24    1
    11    24    25    1
    12    25    26    1
    13    26    21    1
    14    21    22    1
    15    21    20    1
    16     1    20    1
    17     1     8    1
    18     8     9   am
    19     9    10    2
    20     9    12    1
    21    12    13    1
    22    13    14    1
    23    14    15    1
    24    15    16    1
    25    15    17    1
    26    15    18    1
    27    18    19    1
    28     1     2    1
    29     2     3   ar
    30     3     4   ar
    31     4     5   ar
    32     5     6   ar
    33     6     7   ar
    34    26    27    1
    35    27    28    1
    36    34    30   ar
    37    28    23    1
    38    19    12    1
    39     7     2   ar
    40     8    11    1
@<TRIPOS>MOLECULE
*****
 37 40 0 0 0
SMALL
GASTEIGER

@<TRIPOS>ATOM
      1 C         142.7184  141.9759  166.0452 C.3     1  UNL1        0.0954
      2 C         142.8166  141.4957  167.4629 C.ar    1  UNL1       -0.0045
      3 C         142.3752  140.1063  167.8163 C.ar    1  UNL1       -0.0027
      4 C         142.4734  139.6260  169.2340 C.ar    1  UNL1       -0.0003
      5 C         143.0131  140.5351  170.2981 C.ar    1  UNL1       -0.0000
      6 C         143.4545  141.9244  169.9446 C.ar    1  UNL1       -0.0003
      7 C         143.3562  142.4047  168.5270 C.ar    1  UNL1       -0.0027
      8 N         141.5432  141.5828  165.1999 N.am    1  UNL1       -0.3022
      9 C         141.5680  140.2933  164.4342 C.2     1  UNL1        0.2222
     10 O         142.7679  139.3968  164.5137 O.2     1  UNL1       -0.2751
     11 H         140.7556  142.1712  165.1477 H       1  UNL1        0.1497
     12 C         140.3928  139.9003  163.5889 C.3     1  UNL1        0.0769
     13 C         139.7252  140.9184  162.7127 C.3     1  UNL1        0.0147
     14 C         138.5500  140.5253  161.8675 C.3     1  UNL1        0.0671
     15 C         138.0424  139.1142  161.8984 C.3     1  UNL1        0.2640
     16 F         137.2016  137.9115  161.5876 F       1  UNL1       -0.2043
     17 F         137.0828  139.7146  160.9143 F       1  UNL1       -0.2043
     18 C         138.7101  138.0960  162.7746 C.3     1  UNL1        0.0671
     19 C         139.8852  138.4890  163.6198 C.3     1  UNL1        0.0147
     20 C         143.7953  142.8492  165.4729 C.3     1  UNL1        0.0401
     21 C         143.5721  143.5590  164.1704 C.3     1  UNL1        0.0595
     22 C         143.3046  145.0349  164.1568 C.3     1  UNL1        0.0174
     23 C         143.7053  141.2607  160.3039 C.3     1  UNL1        0.0905
     24 C         144.5931  140.8610  161.4449 C.3     1  UNL1        0.0400
     25 C         144.5487  141.6271  162.7337 C.3     1  UNL1        0.0740
     26 N         143.6165  142.7929  162.8815 N.3     1  UNL1       -0.2738
     27 C         142.7286  143.1926  161.7405 C.3     1  UNL1        0.0740
     28 C         142.7730  142.4265  160.4517 C.3     1  UNL1        0.0400
     29 C         145.4301  142.0647  157.6528 C.3     1  UNL1        0.0738
     30 C         144.5425  140.8641  157.7965 C.ar    1  UNL1        0.1433
     31 N         144.2918  139.8223  156.7468 N.ar    1  UNL1       -0.1337
     32 N         143.3440  138.8088  157.3166 N.ar    1  UNL1       -0.1337
     33 C         143.0090  139.2243  158.7185 C.ar    1  UNL1        0.1425
     34 N         143.7497  140.4945  159.0150 N.ar    1  UNL1       -0.3039
     35 C         142.0939  138.4972  159.6586 C.3     1  UNL1        0.0588
     36 C         142.6639  137.7092  160.8006 C.3     1  UNL1        0.0080
     37 C         140.6088  138.5581  159.4569 C.3     1  UNL1        0.0080
@<TRIPOS>BOND
     1    29    30    1
     2    30    31   ar
     3    31    32   ar
     4    32    33   ar
     5    33    35    1
     6    35    36    1
     7    35    37    1
     8    33    34   ar
     9    34    23    1
    10    23    24    1
    11    24    25    1
    12    25    26    1
    13    26    21    1
    14    21    22    1
    15    21    20    1
    16     1    20    1
    17     1     8    1
    18     8     9   am
    19     9    10    2
    20     9    12    1
    21    12    13    1
    22    13    14    1
    23    14    15    1
    24    15    16    1
    25    15    17    1
    26    15    18    1
    27    18    19    1
    28     1     2    1
    29     2     3   ar
    30     3     4   ar
    31     4     5   ar
    32     5     6   ar
    33     6     7   ar
    34    26    27    1
    35    27    28    1
    36    34    30   ar
    37    28    23    1
    38    19    12    1
    39     7     2   ar
    40     8    11    1
@<TRIPOS>MOLECULE
*****
 37 40 0 0 0
SMALL
GASTEIGER

@<TRIPOS>ATOM
      1 C         141.9697  139.9461  166.1284 C.3     1  UNL1        0.0954
      2 C         141.4961  139.9322  167.5516 C.ar    1  UNL1       -0.0045
      3 C         140.0918  140.3455  167.8787 C.ar    1  UNL1       -0.0027
      4 C         139.6182  140.3316  169.3019 C.ar    1  UNL1       -0.0003
      5 C         140.5489  139.9043  170.3980 C.ar    1  UNL1       -0.0000
      6 C         141.9532  139.4911  170.0708 C.ar    1  UNL1       -0.0003
      7 C         142.4268  139.5050  168.6476 C.ar    1  UNL1       -0.0027
      8 N         141.4000  140.9381  165.1580 N.am    1  UNL1       -0.3022
      9 C         141.9861  142.3155  165.0627 C.2     1  UNL1        0.2222
     10 O         143.1418  142.7011  165.9377 O.2     1  UNL1       -0.2751
     11 H         140.6415  140.6850  164.5837 H       1  UNL1        0.1497
     12 C         141.4164  143.3074  164.0924 C.3     1  UNL1        0.0769
     13 C         142.1499  143.6201  162.8219 C.3     1  UNL1        0.0147
     14 C         141.5802  144.6121  161.8516 C.3     1  UNL1        0.0671
     15 C         140.2769  145.2913  162.1517 C.3     1  UNL1        0.2640
     16 F         139.0845  146.1871  161.9913 F       1  UNL1       -0.2043
     17 F         140.5964  145.9151  160.8256 F       1  UNL1       -0.2043
     18 C         139.5433  144.9785  163.4222 C.3     1  UNL1        0.0671
     19 C         140.1130  143.9866  164.3925 C.3     1  UNL1        0.0147
     20 C         143.0130  138.9681  165.6755 C.3     1  UNL1        0.0401
     21 C         143.7194  139.1764  164.3687 C.3     1  UNL1        0.0595
     22 C         145.1965  139.4365  164.3477 C.3     1  UNL1        0.0174
     23 C         141.4071  139.0212  160.5114 C.3     1  UNL1        0.0905
     24 C         142.4280  140.0979  160.7310 C.3     1  UNL1        0.0400
     25 C         143.1987  140.1497  162.0167 C.3     1  UNL1        0.0740
     26 N         142.9486  139.1247  163.0829 N.3     1  UNL1       -0.2738
     27 C         141.9277  138.0479  162.8633 C.3     1  UNL1        0.0740
     28 C         141.1569  137.9961  161.5776 C.3     1  UNL1        0.0400
     29 C         142.3651  137.5540  157.7583 C.3     1  UNL1        0.0738
     30 C         141.0767  138.2950  157.9602 C.ar    1  UNL1        0.1433
     31 N         140.0024  138.4917  156.9320 N.ar    1  UNL1       -0.1337
     32 N         138.8980  139.2877  157.5620 N.ar    1  UNL1       -0.1337
     33 C         139.2898  139.5829  158.9795 C.ar    1  UNL1        0.1425
     34 N         140.6363  138.9694  159.2256 N.ar    1  UNL1       -0.3039
     35 C         138.4777  140.3559  159.9759 C.3     1  UNL1        0.0588
     36 C         137.3610  139.6826  160.7172 C.3     1  UNL1        0.0080
     37 C         138.7823  141.8024  160.2311 C.3     1  UNL1        0.0080
@<TRIPOS>BOND
     1    29    30    1
     2    30    31   ar
     3    31    32   ar
     4    32    33   ar
     5    33    35    1
     6    35    36    1
     7    35    37    1
     8    33    34   ar
     9    34    23    1
    10    23    24    1
    11    24    25    1
    12    25    26    1
    13    26    21    1
    14    21    22    1
    15    21    20    1
    16     1    20    1
    17     1     8    1
    18     8     9   am
    19     9    10    2
    20     9    12    1
    21    12    13    1
    22    13    14    1
    23    14    15    1
    24    15    16    1
    25    15    17    1
    26    15    18    1
    27    18    19    1
    28     1     2    1
    29     2     3   ar
    30     3     4   ar
    31     4     5   ar
    32     5     6   ar
    33     6     7   ar
    34    26    27    1
    35    27    28    1
    36    34    30   ar
    37    28    23    1
    38    19    12    1
    39     7     2   ar
    40     8    11    1
@<TRIPOS>MOLECULE
*****
 37 40 0 0 0
SMALL
GASTEIGER

@<TRIPOS>ATOM
      1 C         143.5837  142.4214  161.5838 C.3     1  UNL1        0.0954
      2 C         143.1692  140.9987  161.8166 C.ar    1  UNL1       -0.0045
      3 C         141.7386  140.6765  162.1324 C.ar    1  UNL1       -0.0027
      4 C         141.3240  139.2539  162.3652 C.ar    1  UNL1       -0.0003
      5 C         142.3400  138.1534  162.2821 C.ar    1  UNL1       -0.0000
      6 C         143.7705  138.4757  161.9662 C.ar    1  UNL1       -0.0003
      7 C         144.1851  139.8983  161.7335 C.ar    1  UNL1       -0.0027
      8 N         143.2530  143.0961  160.2855 N.am    1  UNL1       -0.3022
      9 C         142.0014  143.9136  160.1627 C.2     1  UNL1        0.2222
     10 O         141.0804  144.0564  161.3380 O.2     1  UNL1       -0.2751
     11 H         143.8574  143.0024  159.5141 H       1  UNL1        0.1497
     12 C         141.6707  144.5883  158.8645 C.3     1  UNL1        0.0769
     13 C         140.5033  145.5266  158.7829 C.3     1  UNL1        0.0147
     14 C         140.1726  146.2013  157.4846 C.3     1  UNL1        0.0671
     15 C         141.0094  145.9377  156.2679 C.3     1  UNL1        0.2640
     16 F         141.4999  146.0084  154.8522 F       1  UNL1       -0.2043
     17 F         140.0123  146.9005  155.6947 F       1  UNL1       -0.2043
     18 C         142.1768  144.9993  156.3495 C.3     1  UNL1        0.0671
     19 C         142.5075  144.3247  157.6477 C.3     1  UNL1        0.0147
     20 C         144.3290  143.1693  162.6492 C.3     1  UNL1        0.0401
     21 C         143.5767  143.8451  163.7570 C.3     1  UNL1        0.0595
     22 C         143.7372  145.3193  163.9823 C.3     1  UNL1        0.0174
     23 C         140.8382  141.4493  166.4049 C.3     1  UNL1        0.0905
     24 C         142.2704  141.0361  166.2377 C.3     1  UNL1        0.0400
     25 C         143.1832  141.8347  165.3551 C.3     1  UNL1        0.0740
     26 N         142.6638  143.0465  164.6397 N.3     1  UNL1       -0.2738
     27 C         141.2316  143.4597  164.8068 C.3     1  UNL1        0.0740
     28 C         140.3188  142.6611  165.6894 C.3     1  UNL1        0.0400
     29 C         140.5422  141.7600  169.6400 C.3     1  UNL1        0.0738
     30 C         139.7893  140.7936  168.7745 C.ar    1  UNL1        0.1433
     31 N         138.7681  139.8002  169.2440 N.ar    1  UNL1       -0.1337
     32 N         138.2729  139.0435  168.0472 N.ar    1  UNL1       -0.1337
     33 C         138.9882  139.5691  166.8381 C.ar    1  UNL1        0.1425
     34 N         139.9253  140.6507  167.2875 N.ar    1  UNL1       -0.3039
     35 C         138.7994  139.0962  165.4271 C.3     1  UNL1        0.0588
     36 C         138.1634  139.9992  164.4122 C.3     1  UNL1        0.0080
     37 C         139.2466  137.7203  165.0311 C.3     1  UNL1        0.0080
@<TRIPOS>BOND
     1    29    30    1
     2    30    31   ar
     3    31    32   ar
     4    32    33   ar
     5    33    35    1
     6    35    36    1
     7    35    37    1
     8    33    34   ar
     9    34    23    1
    10    23    24    1
    11    24    25    1
    12    25    26    1
    13    26    21    1
    14    21    22    1
    15    21    20    1
    16     1    20    1
    17     1     8    1
    18     8     9   am
    19     9    10    2
    20     9    12    1
    21    12    13    1
    22    13    14    1
    23    14    15    1
    24    15    16    1
    25    15    17    1
    26    15    18    1
    27    18    19    1
    28     1     2    1
    29     2     3   ar
    30     3     4   ar
    31     4     5   ar
    32     5     6   ar
    33     6     7   ar
    34    26    27    1
    35    27    28    1
    36    34    30   ar
    37    28    23    1
    38    19    12    1
    39     7     2   ar
    40     8    11    1
@<TRIPOS>MOLECULE
*****
 37 40 0 0 0
SMALL
GASTEIGER

@<TRIPOS>ATOM
      1 C         141.8357  141.8478  162.1536 C.3     1  UNL1        0.0954
      2 C         141.6120  141.8966  160.6712 C.ar    1  UNL1       -0.0045
      3 C         141.8569  143.1701  159.9173 C.ar    1  UNL1       -0.0027
      4 C         141.6331  143.2189  158.4349 C.ar    1  UNL1       -0.0003
      5 C         141.1645  141.9942  157.7064 C.ar    1  UNL1       -0.0000
      6 C         140.9196  140.7208  158.4603 C.ar    1  UNL1       -0.0003
      7 C         141.1434  140.6720  159.9427 C.ar    1  UNL1       -0.0027
      8 N         140.8119  141.2112  163.0461 N.am    1  UNL1       -0.3022
      9 C         141.0885  139.8764  163.6719 C.2     1  UNL1        0.2222
     10 O         142.3890  139.1781  163.4052 O.2     1  UNL1       -0.2751
     11 H         139.9583  141.6695  163.2212 H       1  UNL1        0.1497
     12 C         140.0647  139.2398  164.5643 C.3     1  UNL1        0.0769
     13 C         139.9361  137.7461  164.6119 C.3     1  UNL1        0.0147
     14 C         138.9121  137.1095  165.5044 C.3     1  UNL1        0.0671
     15 C         138.0169  137.9667  166.3492 C.3     1  UNL1        0.2640
     16 F         136.9480  138.3516  167.3287 F       1  UNL1       -0.2043
     17 F         137.5171  136.6067  166.7370 F       1  UNL1       -0.2043
     18 C         138.1455  139.4604  166.3016 C.3     1  UNL1        0.0671
     19 C         139.1693  140.0970  165.4092 C.3     1  UNL1        0.0147
     20 C         143.0833  142.4356  162.7436 C.3     1  UNL1        0.0401
     21 C         142.9859  143.5015  163.7944 C.3     1  UNL1        0.0595
     22 C         143.3114  144.9250  163.4513 C.3     1  UNL1        0.0174
     23 C         141.7173  142.4287  167.9765 C.3     1  UNL1        0.0905
     24 C         140.6870  142.8068  166.9539 C.3     1  UNL1        0.0400
     25 C         141.1099  143.1643  165.5600 C.3     1  UNL1        0.0740
     26 N         142.5630  143.1439  165.1885 N.3     1  UNL1       -0.2738
     27 C         143.5933  142.7659  166.2111 C.3     1  UNL1        0.0740
     28 C         143.1704  142.4083  167.6050 C.3     1  UNL1        0.0400
     29 C         140.3440  144.4474  170.1419 C.3     1  UNL1        0.0738
     30 C         140.6632  142.9990  170.3659 C.ar    1  UNL1        0.1433
     31 N         140.4072  142.2242  171.6245 N.ar    1  UNL1       -0.1337
     32 N         140.8802  140.8173  171.4070 N.ar    1  UNL1       -0.1337
     33 C         141.4285  140.7228  170.0141 C.ar    1  UNL1        0.1425
     34 N         141.2944  142.0711  169.3706 N.ar    1  UNL1       -0.3039
     35 C         142.0090  139.4954  169.3765 C.3     1  UNL1        0.0588
     36 C         142.7430  138.4907  170.2142 C.3     1  UNL1        0.0080
     37 C         141.8554  139.2725  167.9011 C.3     1  UNL1        0.0080
@<TRIPOS>BOND
     1    29    30    1
     2    30    31   ar
     3    31    32   ar
     4    32    33   ar
     5    33    35    1
     6    35    36    1
     7    35    37    1
     8    33    34   ar
     9    34    23    1
    10    23    24    1
    11    24    25    1
    12    25    26    1
    13    26    21    1
    14    21    22    1
    15    21    20    1
    16     1    20    1
    17     1     8    1
    18     8     9   am
    19     9    10    2
    20     9    12    1
    21    12    13    1
    22    13    14    1
    23    14    15    1
    24    15    16    1
    25    15    17    1
    26    15    18    1
    27    18    19    1
    28     1     2    1
    29     2     3   ar
    30     3     4   ar
    31     4     5   ar
    32     5     6   ar
    33     6     7   ar
    34    26    27    1
    35    27    28    1
    36    34    30   ar
    37    28    23    1
    38    19    12    1
    39     7     2   ar
    40     8    11    1
@<TRIPOS>MOLECULE
*****
 37 40 0 0 0
SMALL
GASTEIGER

@<TRIPOS>ATOM
      1 C         139.1858  142.1223  158.9799 C.3     1  UNL1        0.0954
      2 C         138.8524  142.9949  157.8062 C.ar    1  UNL1       -0.0045
      3 C         137.6047  142.7409  157.0133 C.ar    1  UNL1       -0.0027
      4 C         137.2713  143.6135  155.8396 C.ar    1  UNL1       -0.0003
      5 C         138.1856  144.7401  155.4590 C.ar    1  UNL1       -0.0000
      6 C         139.4332  144.9940  156.2519 C.ar    1  UNL1       -0.0003
      7 C         139.7666  144.1214  157.4256 C.ar    1  UNL1       -0.0027
      8 N         140.3367  142.4761  159.8746 N.am    1  UNL1       -0.3022
      9 C         140.1063  143.3147  161.0967 C.2     1  UNL1        0.2222
     10 O         138.7251  143.7994  161.4243 O.2     1  UNL1       -0.2751
     11 H         141.2432  142.1579  159.6596 H       1  UNL1        0.1497
     12 C         141.2571  143.6684  161.9913 C.3     1  UNL1        0.0769
     13 C         141.3269  145.0278  162.6215 C.3     1  UNL1        0.0147
     14 C         142.4778  145.3816  163.5162 C.3     1  UNL1        0.0671
     15 C         143.5589  144.3760  163.7806 C.3     1  UNL1        0.2640
     16 F         144.8158  143.7692  164.3302 F       1  UNL1       -0.2043
     17 F         144.0651  145.5246  164.6017 F       1  UNL1       -0.2043
     18 C         143.4891  143.0166  163.1504 C.3     1  UNL1        0.0671
     19 C         142.3383  142.6628  162.2558 C.3     1  UNL1        0.0147
     20 C         138.3684  140.8959  159.2588 C.3     1  UNL1        0.0401
     21 C         138.9550  139.7690  160.0562 C.3     1  UNL1        0.0595
     22 C         139.4773  138.5485  159.3580 C.3     1  UNL1        0.0174
     23 C         139.1481  140.0497  164.5433 C.3     1  UNL1        0.0905
     24 C         140.3627  139.6395  163.7646 C.3     1  UNL1        0.0400
     25 C         140.2983  139.5460  162.2689 C.3     1  UNL1        0.0740
     26 N         139.0194  139.8626  161.5520 N.3     1  UNL1       -0.2738
     27 C         137.8048  140.2728  162.3307 C.3     1  UNL1        0.0740
     28 C         137.8692  140.3664  163.8264 C.3     1  UNL1        0.0400
     29 C         137.7686  137.9801  166.6560 C.3     1  UNL1        0.0738
     30 C         138.5784  139.1920  167.0101 C.ar    1  UNL1        0.1433
     31 N         138.8962  139.6654  168.3975 N.ar    1  UNL1       -0.1337
     32 N         139.7268  140.9094  168.2839 N.ar    1  UNL1       -0.1337
     33 C         139.9222  141.2047  166.8263 C.ar    1  UNL1        0.1425
     34 N         139.2125  140.1433  166.0391 N.ar    1  UNL1       -0.3039
     35 C         140.6922  142.3588  166.2561 C.3     1  UNL1        0.0588
     36 C         142.1877  142.2901  166.1635 C.3     1  UNL1        0.0080
     37 C         139.9667  143.5817  165.7785 C.3     1  UNL1        0.0080
@<TRIPOS>BOND
     1    29    30    1
     2    30    31   ar
     3    31    32   ar
     4    32    33   ar
     5    33    35    1
     6    35    36    1
     7    35    37    1
     8    33    34   ar
     9    34    23    1
    10    23    24    1
    11    24    25    1
    12    25    26    1
    13    26    21    1
    14    21    22    1
    15    21    20    1
    16     1    20    1
    17     1     8    1
    18     8     9   am
    19     9    10    2
    20     9    12    1
    21    12    13    1
    22    13    14    1
    23    14    15    1
    24    15    16    1
    25    15    17    1
    26    15    18    1
    27    18    19    1
    28     1     2    1
    29     2     3   ar
    30     3     4   ar
    31     4     5   ar
    32     5     6   ar
    33     6     7   ar
    34    26    27    1
    35    27    28    1
    36    34    30   ar
    37    28    23    1
    38    19    12    1
    39     7     2   ar
    40     8    11    1
@<TRIPOS>MOLECULE
*****
 37 40 0 0 0
SMALL
GASTEIGER

@<TRIPOS>ATOM
      1 C         139.7526  143.1797  159.2648 C.3     1  UNL1        0.0954
      2 C         139.8473  144.0296  158.0324 C.ar    1  UNL1       -0.0045
      3 C         140.2704  145.4646  158.1416 C.ar    1  UNL1       -0.0027
      4 C         140.3651  146.3144  156.9092 C.ar    1  UNL1       -0.0003
      5 C         140.0365  145.7293  155.5676 C.ar    1  UNL1       -0.0000
      6 C         139.6134  144.2944  155.4585 C.ar    1  UNL1       -0.0003
      7 C         139.5187  143.4445  156.6909 C.ar    1  UNL1       -0.0027
      8 N         140.8944  143.1384  160.2368 N.am    1  UNL1       -0.3022
      9 C         140.8009  143.8828  161.5357 C.2     1  UNL1        0.2222
     10 O         139.5657  144.6686  161.8626 O.2     1  UNL1       -0.2751
     11 H         141.7051  142.6226  160.0223 H       1  UNL1        0.1497
     12 C         141.9426  143.8414  162.5076 C.3     1  UNL1        0.0769
     13 C         142.7873  142.6070  162.6204 C.3     1  UNL1        0.0147
     14 C         143.9291  142.5657  163.5924 C.3     1  UNL1        0.0671
     15 C         144.2261  143.7588  164.4516 C.3     1  UNL1        0.2640
     16 F         144.8975  144.6280  165.4731 F       1  UNL1       -0.2043
     17 F         145.3039  142.8262  164.9191 F       1  UNL1       -0.2043
     18 C         143.3815  144.9932  164.3388 C.3     1  UNL1        0.0671
     19 C         142.2398  145.0346  163.3668 C.3     1  UNL1        0.0147
     20 C         138.5163  142.3712  159.5252 C.3     1  UNL1        0.0401
     21 C         138.6285  141.0026  160.1289 C.3     1  UNL1        0.0595
     22 C         138.5960  139.7892  159.2478 C.3     1  UNL1        0.0174
     23 C         139.0626  140.5375  164.5837 C.3     1  UNL1        0.0905
     24 C         137.8409  141.1953  164.0138 C.3     1  UNL1        0.0400
     25 C         137.6962  141.3503  162.5289 C.3     1  UNL1        0.0740
     26 N         138.7732  140.8476  161.6139 N.3     1  UNL1       -0.2738
     27 C         139.9949  140.1898  162.1838 C.3     1  UNL1        0.0740
     28 C         140.1396  140.0348  163.6687 C.3     1  UNL1        0.0400
     29 C         137.8101  138.1267  166.3918 C.3     1  UNL1        0.0738
     30 C         138.6316  139.2744  166.8997 C.ar    1  UNL1        0.1433
     31 N         139.0216  139.5154  168.3279 N.ar    1  UNL1       -0.1337
     32 N         139.8384  140.7725  168.3796 N.ar    1  UNL1       -0.1337
     33 C         139.9531  141.3083  166.9833 C.ar    1  UNL1        0.1425
     34 N         139.2073  140.3825  166.0687 N.ar    1  UNL1       -0.3039
     35 C         140.6852  142.5518  166.5735 C.3     1  UNL1        0.0588
     36 C         142.1529  142.6846  166.8530 C.3     1  UNL1        0.0080
     37 C         139.9495  143.6625  165.8843 C.3     1  UNL1        0.0080
@<TRIPOS>BOND
     1    29    30    1
     2    30    31   ar
     3    31    32   ar
     4    32    33   ar
     5    33    35    1
     6    35    36    1
     7    35    37    1
     8    33    34   ar
     9    34    23    1
    10    23    24    1
    11    24    25    1
    12    25    26    1
    13    26    21    1
    14    21    22    1
    15    21    20    1
    16     1    20    1
    17     1     8    1
    18     8     9   am
    19     9    10    2
    20     9    12    1
    21    12    13    1
    22    13    14    1
    23    14    15    1
    24    15    16    1
    25    15    17    1
    26    15    18    1
    27    18    19    1
    28     1     2    1
    29     2     3   ar
    30     3     4   ar
    31     4     5   ar
    32     5     6   ar
    33     6     7   ar
    34    26    27    1
    35    27    28    1
    36    34    30   ar
    37    28    23    1
    38    19    12    1
    39     7     2   ar
    40     8    11    1
@<TRIPOS>MOLECULE
*****
 37 40 0 0 0
SMALL
GASTEIGER

@<TRIPOS>ATOM
      1 C         143.2095  140.0874  161.4429 C.3     1  UNL1        0.0954
      2 C         143.1181  139.6682  160.0056 C.ar    1  UNL1       -0.0045
      3 C         143.4284  140.6518  158.9163 C.ar    1  UNL1       -0.0027
      4 C         143.3370  140.2326  157.4790 C.ar    1  UNL1       -0.0003
      5 C         142.9353  138.8298  157.1310 C.ar    1  UNL1       -0.0000
      6 C         142.6250  137.8464  158.2202 C.ar    1  UNL1       -0.0003
      7 C         142.7164  138.2656  159.6576 C.ar    1  UNL1       -0.0027
      8 N         142.0420  140.7582  162.1042 N.am    1  UNL1       -0.3022
      9 C         141.9295  142.2539  162.0898 C.2     1  UNL1        0.2222
     10 O         142.9844  143.0789  161.4141 O.2     1  UNL1       -0.2751
     11 H         141.3497  140.2168  162.5478 H       1  UNL1        0.1497
     12 C         140.7622  142.9246  162.7511 C.3     1  UNL1        0.0769
     13 C         139.3680  142.6482  162.2715 C.3     1  UNL1        0.0147
     14 C         138.2006  143.3190  162.9328 C.3     1  UNL1        0.0671
     15 C         138.4274  144.2661  164.0737 C.3     1  UNL1        0.2640
     16 F         138.1347  145.2339  165.1817 F       1  UNL1       -0.2043
     17 F         136.9316  144.3258  163.9789 F       1  UNL1       -0.2043
     18 C         139.8215  144.5424  164.5533 C.3     1  UNL1        0.0671
     19 C         140.9889  143.8717  163.8920 C.3     1  UNL1        0.0147
     20 C         144.4682  139.8359  162.2190 C.3     1  UNL1        0.0401
     21 C         144.7132  140.5640  163.5073 C.3     1  UNL1        0.0595
     22 C         145.9274  141.4314  163.6595 C.3     1  UNL1        0.0174
     23 C         141.8052  140.1461  166.9160 C.3     1  UNL1        0.0905
     24 C         142.3247  141.5007  166.5352 C.3     1  UNL1        0.0400
     25 C         143.2940  141.6400  165.3990 C.3     1  UNL1        0.0740
     26 N         143.7438  140.4247  164.6436 N.3     1  UNL1       -0.2738
     27 C         143.2243  139.0700  165.0244 C.3     1  UNL1        0.0740
     28 C         142.2551  138.9307  166.1606 C.3     1  UNL1        0.0400
     29 C         138.5928  139.6391  166.6457 C.3     1  UNL1        0.0738
     30 C         139.3593  139.7737  167.9280 C.ar    1  UNL1        0.1433
     31 N         138.7839  139.6989  169.3112 N.ar    1  UNL1       -0.1337
     32 N         139.9048  139.8857  170.2904 N.ar    1  UNL1       -0.1337
     33 C         141.1730  140.0760  169.5123 C.ar    1  UNL1        0.1425
     34 N         140.8359  140.0067  168.0523 N.ar    1  UNL1       -0.3039
     35 C         142.5385  140.2967  170.0924 C.3     1  UNL1        0.0588
     36 C         143.1635  141.6594  170.0423 C.3     1  UNL1        0.0080
     37 C         143.2793  139.1547  170.7226 C.3     1  UNL1        0.0080
@<TRIPOS>BOND
     1    29    30    1
     2    30    31   ar
     3    31    32   ar
     4    32    33   ar
     5    33    35    1
     6    35    36    1
     7    35    37    1
     8    33    34   ar
     9    34    23    1
    10    23    24    1
    11    24    25    1
    12    25    26    1
    13    26    21    1
    14    21    22    1
    15    21    20    1
    16     1    20    1
    17     1     8    1
    18     8     9   am
    19     9    10    2
    20     9    12    1
    21    12    13    1
    22    13    14    1
    23    14    15    1
    24    15    16    1
    25    15    17    1
    26    15    18    1
    27    18    19    1
    28     1     2    1
    29     2     3   ar
    30     3     4   ar
    31     4     5   ar
    32     5     6   ar
    33     6     7   ar
    34    26    27    1
    35    27    28    1
    36    34    30   ar
    37    28    23    1
    38    19    12    1
    39     7     2   ar
    40     8    11    1
@<TRIPOS>MOLECULE
*****
 37 40 0 0 0
SMALL
GASTEIGER

@<TRIPOS>ATOM
      1 C         140.6679  143.4639  161.4534 C.3     1  UNL1        0.0954
      2 C         141.7796  143.6385  162.4452 C.ar    1  UNL1       -0.0045
      3 C         142.5767  142.4501  162.8951 C.ar    1  UNL1       -0.0027
      4 C         143.6884  142.6246  163.8869 C.ar    1  UNL1       -0.0003
      5 C         144.0030  143.9876  164.4287 C.ar    1  UNL1       -0.0000
      6 C         143.2059  145.1759  163.9788 C.ar    1  UNL1       -0.0003
      7 C         142.0942  145.0013  162.9870 C.ar    1  UNL1       -0.0027
      8 N         140.9025  143.7661  160.0029 N.am    1  UNL1       -0.3022
      9 C         140.4350  145.0680  159.4229 C.2     1  UNL1        0.2222
     10 O         139.7329  146.0677  160.2933 O.2     1  UNL1       -0.2751
     11 H         141.3633  143.1099  159.4317 H       1  UNL1        0.1497
     12 C         140.6696  145.3701  157.9725 C.3     1  UNL1        0.0769
     13 C         139.8391  146.4090  157.2790 C.3     1  UNL1        0.0147
     14 C         140.0738  146.7111  155.8285 C.3     1  UNL1        0.0671
     15 C         141.1388  145.9743  155.0717 C.3     1  UNL1        0.2640
     16 F         142.0220  145.5468  153.9372 F       1  UNL1       -0.2043
     17 F         140.6151  146.8647  153.9842 F       1  UNL1       -0.2043
     18 C         141.9692  144.9354  155.7653 C.3     1  UNL1        0.0671
     19 C         141.7347  144.6333  157.2156 C.3     1  UNL1        0.0147
     20 C         139.3217  142.9872  161.9120 C.3     1  UNL1        0.0401
     21 C         138.8794  143.2344  163.3238 C.3     1  UNL1        0.0595
     22 C         137.7994  144.2360  163.6069 C.3     1  UNL1        0.0174
     23 C         140.7929  140.9712  166.7100 C.3     1  UNL1        0.0905
     24 C         140.7955  142.4711  166.7144 C.3     1  UNL1        0.0400
     25 C         140.1576  143.2255  165.5857 C.3     1  UNL1        0.0740
     26 N         139.5173  142.4799  164.4526 N.3     1  UNL1       -0.2738
     27 C         139.5147  140.9800  164.4481 C.3     1  UNL1        0.0740
     28 C         140.1525  140.2256  165.5768 C.3     1  UNL1        0.0400
     29 C         143.4390  139.0733  166.4954 C.3     1  UNL1        0.0738
     30 C         142.6470  139.3444  167.7401 C.ar    1  UNL1        0.1433
     31 N         142.9322  138.7907  169.1047 N.ar    1  UNL1       -0.1337
     32 N         141.8922  139.3208  170.0467 N.ar    1  UNL1       -0.1337
     33 C         140.9643  140.2021  169.2643 C.ar    1  UNL1        0.1425
     34 N         141.4307  140.2167  167.8387 N.ar    1  UNL1       -0.3039
     35 C         139.7781  140.9395  169.8114 C.3     1  UNL1        0.0588
     36 C         138.4617  140.2362  169.9616 C.3     1  UNL1        0.0080
     37 C         139.9083  142.3801  170.2084 C.3     1  UNL1        0.0080
@<TRIPOS>BOND
     1    29    30    1
     2    30    31   ar
     3    31    32   ar
     4    32    33   ar
     5    33    35    1
     6    35    36    1
     7    35    37    1
     8    33    34   ar
     9    34    23    1
    10    23    24    1
    11    24    25    1
    12    25    26    1
    13    26    21    1
    14    21    22    1
    15    21    20    1
    16     1    20    1
    17     1     8    1
    18     8     9   am
    19     9    10    2
    20     9    12    1
    21    12    13    1
    22    13    14    1
    23    14    15    1
    24    15    16    1
    25    15    17    1
    26    15    18    1
    27    18    19    1
    28     1     2    1
    29     2     3   ar
    30     3     4   ar
    31     4     5   ar
    32     5     6   ar
    33     6     7   ar
    34    26    27    1
    35    27    28    1
    36    34    30   ar
    37    28    23    1
    38    19    12    1
    39     7     2   ar
    40     8    11    1
