@<TRIPOS>MOLECULE
*****
 29 34 0 0 0
SMALL
GASTEIGER

@<TRIPOS>ATOM
      1 N         144.0003  142.7239  170.0239 N.pl3   1  UNL1       -0.3133
      2 C         142.6661  142.0723  170.2360 C.2     1  UNL1        0.2770
      3 N         141.8577  141.3586  169.1933 N.2     1  UNL1       -0.2202
      4 C         140.5979  140.8651  169.8409 C.3     1  UNL1        0.1582
      5 C         140.6277  141.2738  171.2839 C.3     1  UNL1        0.2351
      6 O         141.9060  142.0199  171.5280 O.2     1  UNL1       -0.4478
      7 C         140.7077  140.5268  168.3837 C.ar    1  UNL1        0.0357
      8 C         141.9146  140.9559  167.6030 C.ar    1  UNL1        0.0007
      9 C         142.0244  140.6176  166.1458 C.ar    1  UNL1        0.0029
     10 C         140.9274  139.8501  165.4693 C.ar    1  UNL1        0.0032
     11 C         139.7206  139.4211  166.2499 C.ar    1  UNL1        0.0366
     12 C         139.6108  139.7594  167.7072 C.ar    1  UNL1        0.1362
     13 O         138.4040  139.3303  168.4879 O.3     1  UNL1       -0.4792
     14 C         138.2942  139.6686  169.9451 C.3     1  UNL1        0.1725
     15 C         139.3911  140.4360  170.6216 C.3     1  UNL1        0.1174
     16 C         139.4218  140.3416  170.2150 C.3     1  UNL1        0.1502
     17 O         139.3895  140.4408  170.6424 O.3     1  UNL1       -0.3532
     18 C         139.4218  140.3416  170.2150 C.3     1  UNL1        0.1502
     19 H         144.4213  142.7055  169.1341 H       1  UNL1        0.1466
     20 H         144.4552  143.1701  170.7745 H       1  UNL1        0.1466
     21 C         143.2312  141.0467  165.3651 C.ar    1  UNL1        0.0384
     22 C         143.9486  140.0609  164.4912 C.ar    1  UNL1        0.1022
     23 N         145.1554  140.4900  163.7105 N.ar    1  UNL1       -0.2224
     24 C         145.6448  141.9048  163.8037 C.ar    1  UNL1        0.1989
     25 N         144.9275  142.8906  164.6775 N.ar    1  UNL1       -0.2224
     26 C         143.7206  142.4615  165.4583 C.ar    1  UNL1        0.1022
     27 C         137.0873  139.2394  170.7258 C.3     1  UNL1        0.0403
     28 C         136.2058  138.1497  171.2601 C.3     1  UNL1        0.0037
     29 C         135.8785  139.5859  171.5436 C.3     1  UNL1        0.0037
@<TRIPOS>BOND
     1     1     2    1
     2     2     3    2
     3     3     4    1
     4     4     5    1
     5     5     6    1
     6     4     7    1
     7     7     8   ar
     8     8     9   ar
     9     9    21    1
    10    21    22   ar
    11    22    23   ar
    12    23    24   ar
    13    24    25   ar
    14    25    26   ar
    15     9    10   ar
    16    10    11   ar
    17    11    12   ar
    18    12    13    1
    19    13    14    1
    20    14    27    1
    21    27    28    1
    22    28    29    1
    23    14    15    1
    24    15    16    1
    25    16    17    1
    26    17    18    1
    27     6     2    1
    28    12     7   ar
    29    29    27    1
    30    18    15    1
    31    15     4    1
    32    26    21   ar
    33     1    19    1
    34     1    20    1
@<TRIPOS>MOLECULE
*****
 29 34 0 0 0
SMALL
GASTEIGER

@<TRIPOS>ATOM
      1 N         140.1704  144.0302  170.0500 N.pl3   1  UNL1       -0.3133
      2 C         140.8646  142.7115  170.2199 C.2     1  UNL1        0.2770
      3 N         141.3495  141.8215  169.1140 N.2     1  UNL1       -0.2202
      4 C         141.9805  140.6110  169.7361 C.3     1  UNL1        0.1582
      5 C         141.8854  140.7530  171.2264 C.3     1  UNL1        0.2351
      6 O         141.1958  142.0511  171.5253 O.2     1  UNL1       -0.4478
      7 C         142.0024  140.6077  168.2363 C.ar    1  UNL1        0.0357
      8 C         141.4068  141.7548  167.4749 C.ar    1  UNL1        0.0007
      9 C         141.4287  141.7515  165.9751 C.ar    1  UNL1        0.0029
     10 C         142.0463  140.6011  165.2366 C.ar    1  UNL1        0.0032
     11 C         142.6418  139.4541  165.9979 C.ar    1  UNL1        0.0366
     12 C         142.6199  139.4574  167.4978 C.ar    1  UNL1        0.1362
     13 O         143.2155  138.3104  168.2591 O.3     1  UNL1       -0.4792
     14 C         143.1935  138.3137  169.7589 C.3     1  UNL1        0.1725
     15 C         142.5760  139.4640  170.4974 C.3     1  UNL1        0.1174
     16 C         142.5822  139.4631  170.0790 C.3     1  UNL1        0.1502
     17 O         142.5757  139.4641  170.5188 O.3     1  UNL1       -0.3532
     18 C         142.5822  139.4631  170.0790 C.3     1  UNL1        0.1502
     19 H         139.9966  144.3822  169.1472 H       1  UNL1        0.1466
     20 H         139.8885  144.5436  170.8413 H       1  UNL1        0.1466
     21 C         140.8332  142.8985  165.2138 C.ar    1  UNL1        0.0384
     22 C         139.6481  143.6321  165.7684 C.ar    1  UNL1        0.1022
     23 N         139.0526  144.7791  165.0070 N.ar    1  UNL1       -0.2224
     24 C         139.6420  145.1925  163.6911 C.ar    1  UNL1        0.1989
     25 N         140.8270  144.4589  163.1365 N.ar    1  UNL1       -0.2224
     26 C         141.4226  143.3119  163.8978 C.ar    1  UNL1        0.1022
     27 C         143.7891  137.1667  170.5202 C.3     1  UNL1        0.0403
     28 C         144.8802  136.1528  170.6986 C.3     1  UNL1        0.0037
     29 C         143.7298  136.1938  171.6604 C.3     1  UNL1        0.0037
@<TRIPOS>BOND
     1     1     2    1
     2     2     3    2
     3     3     4    1
     4     4     5    1
     5     5     6    1
     6     4     7    1
     7     7     8   ar
     8     8     9   ar
     9     9    21    1
    10    21    22   ar
    11    22    23   ar
    12    23    24   ar
    13    24    25   ar
    14    25    26   ar
    15     9    10   ar
    16    10    11   ar
    17    11    12   ar
    18    12    13    1
    19    13    14    1
    20    14    27    1
    21    27    28    1
    22    28    29    1
    23    14    15    1
    24    15    16    1
    25    16    17    1
    26    17    18    1
    27     6     2    1
    28    12     7   ar
    29    29    27    1
    30    18    15    1
    31    15     4    1
    32    26    21   ar
    33     1    19    1
    34     1    20    1
@<TRIPOS>MOLECULE
*****
 29 34 0 0 0
SMALL
GASTEIGER

@<TRIPOS>ATOM
      1 N         137.4091  141.1395  163.4969 N.pl3   1  UNL1       -0.3133
      2 C         138.3256  140.8180  164.6399 C.2     1  UNL1        0.2770
      3 N         139.6788  141.4187  164.8808 N.2     1  UNL1       -0.2202
      4 C         140.2394  140.8113  166.1327 C.3     1  UNL1        0.1582
      5 C         139.2326  139.8353  166.6653 C.3     1  UNL1        0.2351
      6 O         138.0498  139.8394  165.7427 O.2     1  UNL1       -0.4478
      7 C         141.1449  141.8156  165.4834 C.ar    1  UNL1        0.0357
      8 C         140.7171  142.5063  164.2224 C.ar    1  UNL1        0.0007
      9 C         141.6226  143.5106  163.5732 C.ar    1  UNL1        0.0029
     10 C         142.9558  143.8242  164.1849 C.ar    1  UNL1        0.0032
     11 C         143.3836  143.1335  165.4458 C.ar    1  UNL1        0.0366
     12 C         142.4781  142.1292  166.0951 C.ar    1  UNL1        0.1362
     13 O         142.9058  141.4385  167.3560 O.3     1  UNL1       -0.4792
     14 C         142.0003  140.4342  168.0052 C.3     1  UNL1        0.1725
     15 C         140.6671  140.1206  167.3936 C.3     1  UNL1        0.1174
     16 C         140.9198  140.4008  167.2124 C.3     1  UNL1        0.1502
     17 O         140.6542  140.1063  167.4028 O.3     1  UNL1       -0.3532
     18 C         140.9198  140.4008  167.2124 C.3     1  UNL1        0.1502
     19 H         137.6807  141.7998  162.8190 H       1  UNL1        0.1466
     20 H         136.5361  140.6903  163.4245 H       1  UNL1        0.1466
     21 C         141.1948  144.2013  162.3123 C.ar    1  UNL1        0.0384
     22 C         142.0761  144.1610  161.0990 C.ar    1  UNL1        0.1022
     23 N         141.6483  144.8517  159.8381 N.ar    1  UNL1       -0.2224
     24 C         140.3394  145.5827  159.7903 C.ar    1  UNL1        0.1989
     25 N         139.4582  145.6230  161.0035 N.ar    1  UNL1       -0.2224
     26 C         139.8859  144.9323  162.2645 C.ar    1  UNL1        0.1022
     27 C         142.4281  139.7435  169.2662 C.3     1  UNL1        0.0403
     28 C         142.6482  138.4805  170.0451 C.3     1  UNL1        0.0037
     29 C         142.9489  139.8100  170.6713 C.3     1  UNL1        0.0037
@<TRIPOS>BOND
     1     1     2    1
     2     2     3    2
     3     3     4    1
     4     4     5    1
     5     5     6    1
     6     4     7    1
     7     7     8   ar
     8     8     9   ar
     9     9    21    1
    10    21    22   ar
    11    22    23   ar
    12    23    24   ar
    13    24    25   ar
    14    25    26   ar
    15     9    10   ar
    16    10    11   ar
    17    11    12   ar
    18    12    13    1
    19    13    14    1
    20    14    27    1
    21    27    28    1
    22    28    29    1
    23    14    15    1
    24    15    16    1
    25    16    17    1
    26    17    18    1
    27     6     2    1
    28    12     7   ar
    29    29    27    1
    30    18    15    1
    31    15     4    1
    32    26    21   ar
    33     1    19    1
    34     1    20    1
@<TRIPOS>MOLECULE
*****
 29 34 0 0 0
SMALL
GASTEIGER

@<TRIPOS>ATOM
      1 N         138.9963  145.9907  161.7733 N.pl3   1  UNL1       -0.3133
      2 C         138.8442  144.7836  162.6507 C.2     1  UNL1        0.2770
      3 N         138.6193  143.3763  162.1828 N.2     1  UNL1       -0.2202
      4 C         138.5264  142.4947  163.3930 C.3     1  UNL1        0.1582
      5 C         138.6939  143.3573  164.6087 C.3     1  UNL1        0.2351
      6 O         138.8902  144.7719  164.1499 O.2     1  UNL1       -0.4478
      7 C         138.3758  141.7631  162.0922 C.ar    1  UNL1        0.0357
      8 C         138.4467  142.5150  160.7962 C.ar    1  UNL1        0.0007
      9 C         138.2961  141.7833  159.4954 C.ar    1  UNL1        0.0029
     10 C         138.0746  140.2997  159.4907 C.ar    1  UNL1        0.0032
     11 C         138.0038  139.5479  160.7867 C.ar    1  UNL1        0.0366
     12 C         138.1544  140.2795  162.0874 C.ar    1  UNL1        0.1362
     13 O         138.0835  139.5277  163.3834 O.3     1  UNL1       -0.4792
     14 C         138.2342  140.2593  164.6842 C.3     1  UNL1        0.1725
     15 C         138.4556  141.7429  164.6890 C.3     1  UNL1        0.1174
     16 C         138.4136  141.5387  164.3260 C.3     1  UNL1        0.1502
     17 O         138.4577  141.7533  164.7075 O.3     1  UNL1       -0.3532
     18 C         138.4136  141.5387  164.3260 C.3     1  UNL1        0.1502
     19 H         138.9510  145.8965  160.7944 H       1  UNL1        0.1466
     20 H         139.1413  146.8771  162.1764 H       1  UNL1        0.1466
     21 C         138.3669  142.5352  158.1994 C.ar    1  UNL1        0.0384
     22 C         137.3416  142.2891  157.1325 C.ar    1  UNL1        0.1022
     23 N         137.4124  143.0409  155.8365 N.ar    1  UNL1       -0.2224
     24 C         138.5085  144.0389  155.6073 C.ar    1  UNL1        0.1989
     25 N         139.5338  144.2851  156.6742 N.ar    1  UNL1       -0.2224
     26 C         139.4630  143.5332  157.9702 C.ar    1  UNL1        0.1022
     27 C         138.1633  139.5074  165.9802 C.3     1  UNL1        0.0403
     28 C         137.6769  138.3320  166.7752 C.3     1  UNL1        0.0037
     29 C         138.5270  139.3803  167.4299 C.3     1  UNL1        0.0037
@<TRIPOS>BOND
     1     1     2    1
     2     2     3    2
     3     3     4    1
     4     4     5    1
     5     5     6    1
     6     4     7    1
     7     7     8   ar
     8     8     9   ar
     9     9    21    1
    10    21    22   ar
    11    22    23   ar
    12    23    24   ar
    13    24    25   ar
    14    25    26   ar
    15     9    10   ar
    16    10    11   ar
    17    11    12   ar
    18    12    13    1
    19    13    14    1
    20    14    27    1
    21    27    28    1
    22    28    29    1
    23    14    15    1
    24    15    16    1
    25    16    17    1
    26    17    18    1
    27     6     2    1
    28    12     7   ar
    29    29    27    1
    30    18    15    1
    31    15     4    1
    32    26    21   ar
    33     1    19    1
    34     1    20    1
@<TRIPOS>MOLECULE
*****
 29 34 0 0 0
SMALL
GASTEIGER

@<TRIPOS>ATOM
      1 N         139.2129  143.8532  161.0437 N.pl3   1  UNL1       -0.3133
      2 C         139.3952  143.7169  162.5263 C.2     1  UNL1        0.2770
      3 N         140.5260  143.0110  163.2143 N.2     1  UNL1       -0.2202
      4 C         140.3085  143.1203  164.6945 C.3     1  UNL1        0.1582
      5 C         139.0434  143.8937  164.9212 C.3     1  UNL1        0.2351
      6 O         138.4790  144.2624  163.5812 O.2     1  UNL1       -0.4478
      7 C         141.5477  142.3655  164.3140 C.ar    1  UNL1        0.0357
      8 C         141.8956  142.1755  162.8673 C.ar    1  UNL1        0.0007
      9 C         143.1347  141.4206  162.4868 C.ar    1  UNL1        0.0029
     10 C         144.0259  140.8557  163.5530 C.ar    1  UNL1        0.0032
     11 C         143.6779  141.0457  164.9997 C.ar    1  UNL1        0.0366
     12 C         142.4388  141.8006  165.3801 C.ar    1  UNL1        0.1362
     13 O         142.0909  141.9906  166.8268 O.3     1  UNL1       -0.4792
     14 C         140.8517  142.7455  167.2072 C.3     1  UNL1        0.1725
     15 C         139.9606  143.3103  166.1411 C.3     1  UNL1        0.1174
     16 C         140.3063  143.0997  166.0349 C.3     1  UNL1        0.1502
     17 O         139.9429  143.3211  166.1465 O.3     1  UNL1       -0.3532
     18 C         140.3063  143.0997  166.0349 C.3     1  UNL1        0.1502
     19 H         139.8721  143.4584  160.4283 H       1  UNL1        0.1466
     20 H         138.4339  144.3375  160.6861 H       1  UNL1        0.1466
     21 C         143.4827  141.2306  161.0402 C.ar    1  UNL1        0.0384
     22 C         143.5786  139.8476  160.4672 C.ar    1  UNL1        0.1022
     23 N         143.9265  139.6576  159.0206 N.ar    1  UNL1       -0.2224
     24 C         144.1786  140.8505  158.1468 C.ar    1  UNL1        0.1989
     25 N         144.0828  142.2335  158.7198 N.ar    1  UNL1       -0.2224
     26 C         143.7348  142.4235  160.1665 C.ar    1  UNL1        0.1022
     27 C         140.5038  142.9355  168.6540 C.3     1  UNL1        0.0403
     28 C         140.4181  143.8172  169.8645 C.3     1  UNL1        0.0037
     29 C         139.9869  142.3829  169.9491 C.3     1  UNL1        0.0037
@<TRIPOS>BOND
     1     1     2    1
     2     2     3    2
     3     3     4    1
     4     4     5    1
     5     5     6    1
     6     4     7    1
     7     7     8   ar
     8     8     9   ar
     9     9    21    1
    10    21    22   ar
    11    22    23   ar
    12    23    24   ar
    13    24    25   ar
    14    25    26   ar
    15     9    10   ar
    16    10    11   ar
    17    11    12   ar
    18    12    13    1
    19    13    14    1
    20    14    27    1
    21    27    28    1
    22    28    29    1
    23    14    15    1
    24    15    16    1
    25    16    17    1
    26    17    18    1
    27     6     2    1
    28    12     7   ar
    29    29    27    1
    30    18    15    1
    31    15     4    1
    32    26    21   ar
    33     1    19    1
    34     1    20    1
@<TRIPOS>MOLECULE
*****
 29 34 0 0 0
SMALL
GASTEIGER

@<TRIPOS>ATOM
      1 N         142.0386  137.4529  162.5036 N.pl3   1  UNL1       -0.3133
      2 C         142.2019  138.3296  163.7096 C.2     1  UNL1        0.2770
      3 N         142.7787  139.7143  163.7215 N.2     1  UNL1       -0.2202
      4 C         142.7504  140.2162  165.1348 C.3     1  UNL1        0.1582
      5 C         142.1562  139.1416  165.9964 C.3     1  UNL1        0.2351
      6 O         141.8172  137.9757  165.1156 O.2     1  UNL1       -0.4478
      7 C         143.3242  141.1932  164.1519 C.ar    1  UNL1        0.0357
      8 C         143.4167  140.8292  162.6996 C.ar    1  UNL1        0.0007
      9 C         143.9906  141.8062  161.7166 C.ar    1  UNL1        0.0029
     10 C         144.4720  143.1471  162.1860 C.ar    1  UNL1        0.0032
     11 C         144.3795  143.5110  163.6382 C.ar    1  UNL1        0.0366
     12 C         143.8056  142.5340  164.6211 C.ar    1  UNL1        0.1362
     13 O         143.7131  142.8979  166.0733 O.3     1  UNL1       -0.4792
     14 C         143.1392  141.9210  167.0563 C.3     1  UNL1        0.1725
     15 C         142.6579  140.5801  166.5870 C.3     1  UNL1        0.1174
     16 C         142.8180  140.8527  166.3128 C.3     1  UNL1        0.1502
     17 O         142.6497  140.5661  166.6010 O.3     1  UNL1       -0.3532
     18 C         142.8180  140.8527  166.3128 C.3     1  UNL1        0.1502
     19 H         142.3228  137.7759  161.6181 H       1  UNL1        0.1466
     20 H         141.6473  136.5544  162.5976 H       1  UNL1        0.1466
     21 C         144.0831  141.4423  160.2644 C.ar    1  UNL1        0.0384
     22 C         143.7612  140.0465  159.8190 C.ar    1  UNL1        0.1022
     23 N         143.8537  139.6826  158.3667 N.ar    1  UNL1       -0.2224
     24 C         144.2681  140.7144  157.3599 C.ar    1  UNL1        0.1989
     25 N         144.5901  142.1101  157.8053 N.ar    1  UNL1       -0.2224
     26 C         144.4976  142.4740  159.2576 C.ar    1  UNL1        0.1022
     27 C         143.0468  142.2849  168.5086 C.3     1  UNL1        0.0403
     28 C         143.6657  142.3501  169.8734 C.3     1  UNL1        0.0037
     29 C         142.2677  142.8501  169.6591 C.3     1  UNL1        0.0037
@<TRIPOS>BOND
     1     1     2    1
     2     2     3    2
     3     3     4    1
     4     4     5    1
     5     5     6    1
     6     4     7    1
     7     7     8   ar
     8     8     9   ar
     9     9    21    1
    10    21    22   ar
    11    22    23   ar
    12    23    24   ar
    13    24    25   ar
    14    25    26   ar
    15     9    10   ar
    16    10    11   ar
    17    11    12   ar
    18    12    13    1
    19    13    14    1
    20    14    27    1
    21    27    28    1
    22    28    29    1
    23    14    15    1
    24    15    16    1
    25    16    17    1
    26    17    18    1
    27     6     2    1
    28    12     7   ar
    29    29    27    1
    30    18    15    1
    31    15     4    1
    32    26    21   ar
    33     1    19    1
    34     1    20    1
@<TRIPOS>MOLECULE
*****
 29 34 0 0 0
SMALL
GASTEIGER

@<TRIPOS>ATOM
      1 N         137.5092  138.3659  167.3006 N.pl3   1  UNL1       -0.3133
      2 C         138.5307  138.2540  166.2080 C.2     1  UNL1        0.2770
      3 N         139.7458  139.1183  166.0452 N.2     1  UNL1       -0.2202
      4 C         140.4827  138.6567  164.8229 C.3     1  UNL1        0.1582
      5 C         139.7230  137.5070  164.2303 C.3     1  UNL1        0.2351
      6 O         138.5165  137.2582  165.0864 O.2     1  UNL1       -0.4478
      7 C         141.1315  139.8117  165.5265 C.ar    1  UNL1        0.0357
      8 C         140.5072  140.3815  166.7657 C.ar    1  UNL1        0.0007
      9 C         141.1560  141.5365  167.4692 C.ar    1  UNL1        0.0029
     10 C         142.4291  142.1217  166.9336 C.ar    1  UNL1        0.0032
     11 C         143.0533  141.5519  165.6944 C.ar    1  UNL1        0.0366
     12 C         142.4045  140.3969  164.9908 C.ar    1  UNL1        0.1362
     13 O         143.0287  139.8271  163.7517 O.3     1  UNL1       -0.4792
     14 C         142.3799  138.6720  163.0481 C.3     1  UNL1        0.1725
     15 C         141.1069  138.0868  163.5837 C.3     1  UNL1        0.1174
     16 C         141.2879  138.4091  163.7800 C.3     1  UNL1        0.1502
     17 O         141.0977  138.0704  163.5737 O.3     1  UNL1       -0.3532
     18 C         141.2879  138.4091  163.7800 C.3     1  UNL1        0.1502
     19 H         137.6058  139.0560  167.9960 H       1  UNL1        0.1466
     20 H         136.7421  137.7491  167.3223 H       1  UNL1        0.1466
     21 C         140.5318  142.1064  168.7084 C.ar    1  UNL1        0.0384
     22 C         140.7578  143.5449  169.0687 C.ar    1  UNL1        0.1022
     23 N         140.1336  144.1147  170.3079 N.ar    1  UNL1       -0.2224
     24 C         139.2833  143.2461  171.1868 C.ar    1  UNL1        0.1989
     25 N         139.0572  141.8076  170.8266 N.ar    1  UNL1       -0.2224
     26 C         139.6815  141.2377  169.5874 C.ar    1  UNL1        0.1022
     27 C         143.0042  138.1022  161.8089 C.3     1  UNL1        0.0403
     28 C         142.8788  137.6278  160.3913 C.3     1  UNL1        0.0037
     29 C         144.2109  137.5897  161.0800 C.3     1  UNL1        0.0037
@<TRIPOS>BOND
     1     1     2    1
     2     2     3    2
     3     3     4    1
     4     4     5    1
     5     5     6    1
     6     4     7    1
     7     7     8   ar
     8     8     9   ar
     9     9    21    1
    10    21    22   ar
    11    22    23   ar
    12    23    24   ar
    13    24    25   ar
    14    25    26   ar
    15     9    10   ar
    16    10    11   ar
    17    11    12   ar
    18    12    13    1
    19    13    14    1
    20    14    27    1
    21    27    28    1
    22    28    29    1
    23    14    15    1
    24    15    16    1
    25    16    17    1
    26    17    18    1
    27     6     2    1
    28    12     7   ar
    29    29    27    1
    30    18    15    1
    31    15     4    1
    32    26    21   ar
    33     1    19    1
    34     1    20    1
@<TRIPOS>MOLECULE
*****
 29 34 0 0 0
SMALL
GASTEIGER

@<TRIPOS>ATOM
      1 N         138.3975  138.2040  161.6138 N.pl3   1  UNL1       -0.3133
      2 C         138.6769  138.5394  163.0488 C.2     1  UNL1        0.2770
      3 N         139.0625  139.8882  163.5800 N.2     1  UNL1       -0.2202
      4 C         139.2437  139.7674  165.0641 C.3     1  UNL1        0.1582
      5 C         138.9700  138.3439  165.4501 C.3     1  UNL1        0.2351
      6 O         138.6197  137.5850  164.2045 O.2     1  UNL1       -0.4478
      7 C         139.4866  141.1479  164.5303 C.ar    1  UNL1        0.0357
      8 C         139.3427  141.4204  163.0622 C.ar    1  UNL1        0.0007
      9 C         139.5856  142.8010  162.5283 C.ar    1  UNL1        0.0029
     10 C         139.9726  143.9091  163.4625 C.ar    1  UNL1        0.0032
     11 C         140.1165  143.6365  164.9305 C.ar    1  UNL1        0.0366
     12 C         139.8735  142.2560  165.4644 C.ar    1  UNL1        0.1362
     13 O         140.0174  141.9834  166.9323 O.3     1  UNL1       -0.4792
     14 C         139.7745  140.6029  167.4662 C.3     1  UNL1        0.1725
     15 C         139.3876  139.4948  166.5321 C.3     1  UNL1        0.1174
     16 C         139.4554  139.8800  166.3832 C.3     1  UNL1        0.1502
     17 O         139.3841  139.4751  166.5397 O.3     1  UNL1       -0.3532
     18 C         139.4554  139.8800  166.3832 C.3     1  UNL1        0.1502
     19 H         138.4614  138.9030  160.9234 H       1  UNL1        0.1466
     20 H         138.1503  137.2848  161.3622 H       1  UNL1        0.1466
     21 C         139.4417  143.0735  161.0604 C.ar    1  UNL1        0.0384
     22 C         138.6711  142.1228  160.1930 C.ar    1  UNL1        0.1022
     23 N         138.5271  142.3953  158.7251 N.ar    1  UNL1       -0.2224
     24 C         139.1538  143.6186  158.1244 C.ar    1  UNL1        0.1989
     25 N         139.9245  144.5693  158.9916 N.ar    1  UNL1       -0.2224
     26 C         140.0684  144.2968  160.4597 C.ar    1  UNL1        0.1022
     27 C         139.9184  140.3304  168.9342 C.3     1  UNL1        0.0403
     28 C         139.3300  140.3003  170.3137 C.3     1  UNL1        0.0037
     29 C         140.7561  139.8885  170.0975 C.3     1  UNL1        0.0037
@<TRIPOS>BOND
     1     1     2    1
     2     2     3    2
     3     3     4    1
     4     4     5    1
     5     5     6    1
     6     4     7    1
     7     7     8   ar
     8     8     9   ar
     9     9    21    1
    10    21    22   ar
    11    22    23   ar
    12    23    24   ar
    13    24    25   ar
    14    25    26   ar
    15     9    10   ar
    16    10    11   ar
    17    11    12   ar
    18    12    13    1
    19    13    14    1
    20    14    27    1
    21    27    28    1
    22    28    29    1
    23    14    15    1
    24    15    16    1
    25    16    17    1
    26    17    18    1
    27     6     2    1
    28    12     7   ar
    29    29    27    1
    30    18    15    1
    31    15     4    1
    32    26    21   ar
    33     1    19    1
    34     1    20    1
@<TRIPOS>MOLECULE
*****
 29 34 0 0 0
SMALL
GASTEIGER

@<TRIPOS>ATOM
      1 N         140.6040  143.8537  161.9916 N.pl3   1  UNL1       -0.3133
      2 C         140.4184  143.2277  163.3420 C.2     1  UNL1        0.2770
      3 N         140.0185  141.8066  163.6076 N.2     1  UNL1       -0.2202
      4 C         139.9531  141.6135  165.0937 C.3     1  UNL1        0.1582
      5 C         140.3125  142.9153  165.7465 C.3     1  UNL1        0.2351
      6 O         140.6000  143.9130  164.6638 O.2     1  UNL1       -0.4478
      7 C         139.6150  140.3842  164.3033 C.ar    1  UNL1        0.0357
      8 C         139.6384  140.4266  162.8041 C.ar    1  UNL1        0.0007
      9 C         139.3004  139.1974  162.0137 C.ar    1  UNL1        0.0029
     10 C         138.9390  137.9258  162.7226 C.ar    1  UNL1        0.0032
     11 C         138.9156  137.8834  164.2218 C.ar    1  UNL1        0.0366
     12 C         139.2536  139.1127  165.0121 C.ar    1  UNL1        0.1362
     13 O         139.2303  139.0703  166.5113 O.3     1  UNL1       -0.4792
     14 C         139.5683  140.2996  167.3017 C.3     1  UNL1        0.1725
     15 C         139.9297  141.5711  166.5929 C.3     1  UNL1        0.1174
     16 C         139.8354  141.2282  166.3724 C.3     1  UNL1        0.1502
     17 O         139.9345  141.5887  166.6042 O.3     1  UNL1       -0.3532
     18 C         139.8354  141.2282  166.3724 C.3     1  UNL1        0.1502
     19 H         140.4606  143.3191  161.1773 H       1  UNL1        0.1466
     20 H         140.8691  144.7990  161.9194 H       1  UNL1        0.1466
     21 C         139.3237  139.2397  160.5145 C.ar    1  UNL1        0.0384
     22 C         138.1917  139.8769  159.7644 C.ar    1  UNL1        0.1022
     23 N         138.2150  139.9192  158.2652 N.ar    1  UNL1       -0.2224
     24 C         139.3704  139.3244  157.5160 C.ar    1  UNL1        0.1989
     25 N         140.5024  138.6873  158.2660 N.ar    1  UNL1       -0.2224
     26 C         140.4791  138.6449  159.7653 C.ar    1  UNL1        0.1022
     27 C         139.5449  140.2572  168.8010 C.3     1  UNL1        0.0403
     28 C         138.7833  140.3342  170.0910 C.3     1  UNL1        0.0037
     29 C         140.2659  140.1068  170.1077 C.3     1  UNL1        0.0037
@<TRIPOS>BOND
     1     1     2    1
     2     2     3    2
     3     3     4    1
     4     4     5    1
     5     5     6    1
     6     4     7    1
     7     7     8   ar
     8     8     9   ar
     9     9    21    1
    10    21    22   ar
    11    22    23   ar
    12    23    24   ar
    13    24    25   ar
    14    25    26   ar
    15     9    10   ar
    16    10    11   ar
    17    11    12   ar
    18    12    13    1
    19    13    14    1
    20    14    27    1
    21    27    28    1
    22    28    29    1
    23    14    15    1
    24    15    16    1
    25    16    17    1
    26    17    18    1
    27     6     2    1
    28    12     7   ar
    29    29    27    1
    30    18    15    1
    31    15     4    1
    32    26    21   ar
    33     1    19    1
    34     1    20    1
