@<TRIPOS>MOLECULE
*****
 34 36 0 0 0
SMALL
GASTEIGER

@<TRIPOS>ATOM
      1 C         140.7617  140.6933  168.5614 C.ar    1  UNL1        0.0764
      2 C         139.9546  140.1281  167.4304 C.ar    1  UNL1        0.0522
      3 C         138.6344  139.4716  167.7059 C.ar    1  UNL1        0.1515
      4 N         138.1212  139.3803  169.1124 N.ar    1  UNL1       -0.1329
      5 N         138.9282  139.9454  170.2434 N.ar    1  UNL1       -0.1409
      6 C         140.2485  140.6020  169.9679 C.ar    1  UNL1        0.1691
      7 C         141.0555  141.1671  171.0989 C.2     1  UNL1        0.2635
      8 N         142.3720  140.5476  171.4638 N.am    1  UNL1       -0.3240
      9 O         140.5461  142.3518  171.8651 O.2     1  UNL1       -0.2686
     10 H         142.7064  139.7701  170.9610 H       1  UNL1        0.1453
     11 H         142.9017  140.9186  172.2062 H       1  UNL1        0.1453
     12 N         142.0819  141.3498  168.2859 N.pl3   1  UNL1       -0.2965
     13 H         142.8245  141.2491  168.9244 H       1  UNL1        0.1537
     14 C         142.8373  144.5899  163.2928 C.3     1  UNL1        0.0323
     15 C         142.6485  143.7799  164.5411 C.ar    1  UNL1       -0.0082
     16 C         143.8418  143.3265  165.3286 C.ar    1  UNL1       -0.0002
     17 C         143.6530  142.5164  166.5769 C.ar    1  UNL1        0.0341
     18 C         142.2708  142.1599  167.0376 C.ar    1  UNL1        0.1318
     19 N         141.0774  142.6133  166.2501 N.ar    1  UNL1       -0.2352
     20 C         141.2663  143.4233  165.0018 C.ar    1  UNL1        0.0560
     21 C         140.0728  143.8768  164.2143 C.3     1  UNL1        0.0400
     22 C         139.8328  143.3337  162.8368 C.3     1  UNL1        0.0063
     23 C         139.1195  144.8733  164.8043 C.3     1  UNL1        0.0063
     24 N         137.8272  138.9064  166.5748 N.pl3   1  UNL1       -0.3170
     25 H         136.8998  138.6147  166.7296 H       1  UNL1        0.1482
     26 C         138.4333  138.7857  165.2080 C.3     1  UNL1        0.0845
     27 C         139.2028  137.5532  164.8350 C.3     1  UNL1        0.0209
     28 C         139.8088  137.4325  163.4682 C.3     1  UNL1        0.0018
     29 C         139.6454  138.5442  162.4744 C.3     1  UNL1        0.0015
     30 C         138.8760  139.7765  162.8475 C.3     1  UNL1        0.0172
     31 C         138.2699  139.8973  164.2143 C.3     1  UNL1        0.0689
     32 N         137.5005  141.1297  164.5873 N.3     1  UNL1       -0.3209
     33 H         137.1622  141.0422  165.5456 H       1  UNL1        0.1189
     34 H         136.7073  141.2395  163.9555 H       1  UNL1        0.1189
@<TRIPOS>BOND
     1    14    15    1
     2    15    16   ar
     3    16    17   ar
     4    17    18   ar
     5    18    12    1
     6    12     1    1
     7     1     2   ar
     8     2     3   ar
     9     3    24    1
    10    26    24    1
    11    26    27    1
    12    27    28    1
    13    28    29    1
    14    29    30    1
    15    30    31    1
    16    31    32    1
    17     3     4   ar
    18     4     5   ar
    19     5     6   ar
    20     6     7    1
    21     7     8   am
    22     7     9    2
    23    18    19   ar
    24    19    20   ar
    25    20    21    1
    26    21    22    1
    27    21    23    1
    28    20    15   ar
    29     6     1   ar
    30    31    26    1
    31    12    13    1
    32    24    25    1
    33    32    33    1
    34    32    34    1
    35     8    10    1
    36     8    11    1
@<TRIPOS>MOLECULE
*****
 34 36 0 0 0
SMALL
GASTEIGER

@<TRIPOS>ATOM
      1 C         140.3759  139.9026  167.0479 C.ar    1  UNL1        0.0764
      2 C         140.1984  139.1617  165.7558 C.ar    1  UNL1        0.0522
      3 C         138.9585  138.3510  165.5202 C.ar    1  UNL1        0.1515
      4 N         137.8961  138.2812  166.5769 N.ar    1  UNL1       -0.1329
      5 N         138.0736  139.0220  167.8690 N.ar    1  UNL1       -0.1409
      6 C         139.3135  139.8327  168.1046 C.ar    1  UNL1        0.1691
      7 C         139.4910  140.5735  169.3967 C.2     1  UNL1        0.2635
      8 N         139.1992  139.8897  170.6995 N.am    1  UNL1       -0.3240
      9 O         139.9604  141.9981  169.3861 O.2     1  UNL1       -0.2686
     10 H         138.8912  138.9546  170.7065 H       1  UNL1        0.1453
     11 H         139.3157  140.3759  171.5476 H       1  UNL1        0.1453
     12 N         141.6158  140.7132  167.2834 N.pl3   1  UNL1       -0.2965
     13 H         142.1607  140.5568  168.0884 H       1  UNL1        0.1537
     14 C         143.2547  144.9091  163.3200 C.3     1  UNL1        0.0323
     15 C         142.8450  143.8601  164.3109 C.ar    1  UNL1       -0.0082
     16 C         143.8389  143.3398  165.3065 C.ar    1  UNL1       -0.0002
     17 C         143.4292  142.2908  166.2973 C.ar    1  UNL1        0.0341
     18 C         142.0255  141.7622  166.2926 C.ar    1  UNL1        0.1318
     19 N         141.0315  142.2825  165.2970 N.ar    1  UNL1       -0.2352
     20 C         141.4413  143.3314  164.3061 C.ar    1  UNL1        0.0560
     21 C         140.4472  143.8517  163.3105 C.3     1  UNL1        0.0400
     22 C         140.3415  143.2182  161.9550 C.3     1  UNL1        0.0063
     23 C         139.5589  145.0055  163.6705 C.3     1  UNL1        0.0063
     24 N         138.7809  137.6102  164.2281 N.pl3   1  UNL1       -0.3170
     25 H         138.4797  136.6730  164.2354 H       1  UNL1        0.1482
     26 C         139.0624  138.2974  162.9248 C.3     1  UNL1        0.0845
     27 C         138.0976  139.3132  162.3888 C.3     1  UNL1        0.0209
     28 C         138.3791  140.0004  161.0855 C.3     1  UNL1        0.0018
     29 C         139.6255  139.6717  160.3182 C.3     1  UNL1        0.0015
     30 C         140.5902  138.6560  160.8542 C.3     1  UNL1        0.0172
     31 C         140.3087  137.9688  162.1575 C.3     1  UNL1        0.0689
     32 N         141.2735  136.9530  162.6935 N.3     1  UNL1       -0.3209
     33 H         140.9267  136.5901  163.5814 H       1  UNL1        0.1189
     34 H         142.1834  137.3911  162.8374 H       1  UNL1        0.1189
@<TRIPOS>BOND
     1    14    15    1
     2    15    16   ar
     3    16    17   ar
     4    17    18   ar
     5    18    12    1
     6    12     1    1
     7     1     2   ar
     8     2     3   ar
     9     3    24    1
    10    26    24    1
    11    26    27    1
    12    27    28    1
    13    28    29    1
    14    29    30    1
    15    30    31    1
    16    31    32    1
    17     3     4   ar
    18     4     5   ar
    19     5     6   ar
    20     6     7    1
    21     7     8   am
    22     7     9    2
    23    18    19   ar
    24    19    20   ar
    25    20    21    1
    26    21    22    1
    27    21    23    1
    28    20    15   ar
    29     6     1   ar
    30    31    26    1
    31    12    13    1
    32    24    25    1
    33    32    33    1
    34    32    34    1
    35     8    10    1
    36     8    11    1
@<TRIPOS>MOLECULE
*****
 34 36 0 0 0
SMALL
GASTEIGER

@<TRIPOS>ATOM
      1 C         140.3172  141.3924  167.8139 C.ar    1  UNL1        0.0764
      2 C         139.7460  140.5097  166.7440 C.ar    1  UNL1        0.0522
      3 C         138.7392  139.4561  167.0991 C.ar    1  UNL1        0.1515
      4 N         138.3034  139.2852  168.5242 N.ar    1  UNL1       -0.1329
      5 N         138.8745  140.1678  169.5941 N.ar    1  UNL1       -0.1409
      6 C         139.8814  141.2214  169.2390 C.ar    1  UNL1        0.1691
      7 C         140.4525  142.1041  170.3089 C.2     1  UNL1        0.2635
      8 N         139.5381  142.9056  171.1872 N.am    1  UNL1       -0.3240
      9 O         141.9380  142.1852  170.5005 O.2     1  UNL1       -0.2686
     10 H         138.5631  142.8523  171.0615 H       1  UNL1        0.1453
     11 H         139.9129  143.4849  171.8895 H       1  UNL1        0.1453
     12 N         141.3240  142.4459  167.4587 N.pl3   1  UNL1       -0.2965
     13 H         141.6819  143.0403  168.1573 H       1  UNL1        0.1537
     14 C         143.1707  143.0382  161.7808 C.3     1  UNL1        0.0323
     15 C         142.7090  142.8901  163.2003 C.ar    1  UNL1       -0.0082
     16 C         141.5647  143.7170  163.7069 C.ar    1  UNL1       -0.0002
     17 C         141.1030  143.5689  165.1264 C.ar    1  UNL1        0.0341
     18 C         141.7857  142.5940  166.0392 C.ar    1  UNL1        0.1318
     19 N         142.9300  141.7671  165.5326 N.ar    1  UNL1       -0.2352
     20 C         143.3917  141.9152  164.1131 C.ar    1  UNL1        0.0560
     21 C         144.5361  141.0882  163.6065 C.3     1  UNL1        0.0400
     22 C         144.2783  139.7362  163.0105 C.3     1  UNL1        0.0063
     23 C         145.9383  141.6134  163.6961 C.3     1  UNL1        0.0063
     24 N         138.1680  138.5734  166.0292 N.pl3   1  UNL1       -0.3170
     25 H         137.3047  138.1223  166.1721 H       1  UNL1        0.1482
     26 C         138.9123  138.3781  164.7416 C.3     1  UNL1        0.0845
     27 C         140.0348  137.3858  164.6672 C.3     1  UNL1        0.0209
     28 C         140.7791  137.1905  163.3796 C.3     1  UNL1        0.0018
     29 C         140.4008  137.9874  162.1664 C.3     1  UNL1        0.0015
     30 C         139.2783  138.9796  162.2408 C.3     1  UNL1        0.0172
     31 C         138.5340  139.1749  163.5284 C.3     1  UNL1        0.0689
     32 N         137.4115  140.1671  163.6028 N.3     1  UNL1       -0.3209
     33 H         137.0216  140.1693  164.5453 H       1  UNL1        0.1189
     34 H         136.6850  139.9092  162.9349 H       1  UNL1        0.1189
@<TRIPOS>BOND
     1    14    15    1
     2    15    16   ar
     3    16    17   ar
     4    17    18   ar
     5    18    12    1
     6    12     1    1
     7     1     2   ar
     8     2     3   ar
     9     3    24    1
    10    26    24    1
    11    26    27    1
    12    27    28    1
    13    28    29    1
    14    29    30    1
    15    30    31    1
    16    31    32    1
    17     3     4   ar
    18     4     5   ar
    19     5     6   ar
    20     6     7    1
    21     7     8   am
    22     7     9    2
    23    18    19   ar
    24    19    20   ar
    25    20    21    1
    26    21    22    1
    27    21    23    1
    28    20    15   ar
    29     6     1   ar
    30    31    26    1
    31    12    13    1
    32    24    25    1
    33    32    33    1
    34    32    34    1
    35     8    10    1
    36     8    11    1
@<TRIPOS>MOLECULE
*****
 34 36 0 0 0
SMALL
GASTEIGER

@<TRIPOS>ATOM
      1 C         137.9116  139.9664  163.8635 C.ar    1  UNL1        0.0764
      2 C         138.0421  140.0750  165.3539 C.ar    1  UNL1        0.0522
      3 C         138.7549  139.0035  166.1245 C.ar    1  UNL1        0.1515
      4 N         139.3372  137.8233  165.4047 N.ar    1  UNL1       -0.1329
      5 N         139.2067  137.7146  163.9144 N.ar    1  UNL1       -0.1409
      6 C         138.4939  138.7862  163.1437 C.ar    1  UNL1        0.1691
      7 C         138.3635  138.6775  161.6534 C.2     1  UNL1        0.2635
      8 N         139.4797  138.0870  160.8439 N.am    1  UNL1       -0.3240
      9 O         137.1168  139.1595  160.9726 O.2     1  UNL1       -0.2686
     10 H         140.2979  137.7706  161.2907 H       1  UNL1        0.1453
     11 H         139.3940  138.0156  159.8657 H       1  UNL1        0.1453
     12 N         137.1989  141.0379  163.0930 N.pl3   1  UNL1       -0.2965
     13 H         136.2717  140.8953  162.7942 H       1  UNL1        0.1537
     14 C         139.9982  146.1928  161.8320 C.3     1  UNL1        0.0323
     15 C         139.2984  144.9041  162.1472 C.ar    1  UNL1       -0.0082
     16 C         138.3907  144.8154  163.3380 C.ar    1  UNL1       -0.0002
     17 C         137.6908  143.5267  163.6533 C.ar    1  UNL1        0.0341
     18 C         137.8987  142.3266  162.7777 C.ar    1  UNL1        0.1318
     19 N         138.8064  142.4153  161.5869 N.ar    1  UNL1       -0.2352
     20 C         139.5063  143.7041  161.2716 C.ar    1  UNL1        0.0560
     21 C         140.4140  143.7928  160.0807 C.3     1  UNL1        0.0400
     22 C         141.8828  143.5308  160.2361 C.3     1  UNL1        0.0063
     23 C         139.8530  144.1433  158.7345 C.3     1  UNL1        0.0063
     24 N         138.8854  139.1121  167.6149 N.pl3   1  UNL1       -0.3170
     25 H         138.5621  138.3828  168.1918 H       1  UNL1        0.1482
     26 C         139.5085  140.3320  168.2262 C.3     1  UNL1        0.0845
     27 C         140.4518  141.1758  167.4212 C.3     1  UNL1        0.0209
     28 C         141.0749  142.3957  168.0326 C.3     1  UNL1        0.0018
     29 C         140.7546  142.7717  169.4490 C.3     1  UNL1        0.0015
     30 C         139.8113  141.9278  170.2539 C.3     1  UNL1        0.0172
     31 C         139.1882  140.7080  169.6426 C.3     1  UNL1        0.0689
     32 N         138.2449  139.8641  170.4475 N.3     1  UNL1       -0.3209
     33 H         137.9190  139.0821  169.8794 H       1  UNL1        0.1189
     34 H         137.4469  140.4290  170.7382 H       1  UNL1        0.1189
@<TRIPOS>BOND
     1    14    15    1
     2    15    16   ar
     3    16    17   ar
     4    17    18   ar
     5    18    12    1
     6    12     1    1
     7     1     2   ar
     8     2     3   ar
     9     3    24    1
    10    26    24    1
    11    26    27    1
    12    27    28    1
    13    28    29    1
    14    29    30    1
    15    30    31    1
    16    31    32    1
    17     3     4   ar
    18     4     5   ar
    19     5     6   ar
    20     6     7    1
    21     7     8   am
    22     7     9    2
    23    18    19   ar
    24    19    20   ar
    25    20    21    1
    26    21    22    1
    27    21    23    1
    28    20    15   ar
    29     6     1   ar
    30    31    26    1
    31    12    13    1
    32    24    25    1
    33    32    33    1
    34    32    34    1
    35     8    10    1
    36     8    11    1
@<TRIPOS>MOLECULE
*****
 34 36 0 0 0
SMALL
GASTEIGER

@<TRIPOS>ATOM
      1 C         141.2343  141.2786  167.4920 C.ar    1  UNL1        0.0764
      2 C         141.3772  140.2999  166.3642 C.ar    1  UNL1        0.0522
      3 C         142.3035  139.1281  166.5009 C.ar    1  UNL1        0.1515
      4 N         143.0869  138.9349  167.7654 N.ar    1  UNL1       -0.1329
      5 N         142.9441  139.9135  168.8931 N.ar    1  UNL1       -0.1409
      6 C         142.0177  141.0854  168.7564 C.ar    1  UNL1        0.1691
      7 C         141.8748  142.0640  169.8842 C.2     1  UNL1        0.2635
      8 N         143.0953  142.5916  170.5785 N.am    1  UNL1       -0.3240
      9 O         140.5115  142.5149  170.3176 O.2     1  UNL1       -0.2686
     10 H         143.9901  142.2956  170.2941 H       1  UNL1        0.1453
     11 H         143.0015  143.2339  171.3187 H       1  UNL1        0.1453
     12 N         140.3079  142.4504  167.3552 N.pl3   1  UNL1       -0.2965
     13 H         139.7060  142.6911  168.0962 H       1  UNL1        0.1537
     14 C         140.2712  145.6709  162.2929 C.3     1  UNL1        0.0323
     15 C         140.2804  144.8658  163.5585 C.ar    1  UNL1       -0.0082
     16 C         139.0622  144.8292  164.4330 C.ar    1  UNL1       -0.0002
     17 C         139.0714  144.0240  165.6986 C.ar    1  UNL1        0.0341
     18 C         140.2988  143.2555  166.0897 C.ar    1  UNL1        0.1318
     19 N         141.5169  143.2921  165.2152 N.ar    1  UNL1       -0.2352
     20 C         141.5077  144.0973  163.9496 C.ar    1  UNL1        0.0560
     21 C         142.7259  144.1338  163.0751 C.3     1  UNL1        0.0400
     22 C         143.8379  145.0939  163.3779 C.3     1  UNL1        0.0063
     23 C         142.8321  143.2103  161.8979 C.3     1  UNL1        0.0063
     24 N         142.4464  138.1494  165.3731 N.pl3   1  UNL1       -0.3170
     25 H         142.1895  137.2079  165.5028 H       1  UNL1        0.1482
     26 C         142.9808  138.6053  164.0477 C.3     1  UNL1        0.0845
     27 C         144.0571  139.6487  163.9917 C.3     1  UNL1        0.0209
     28 C         144.5914  140.1046  162.6663 C.3     1  UNL1        0.0018
     29 C         144.0496  139.5170  161.3970 C.3     1  UNL1        0.0015
     30 C         142.9734  138.4736  161.4530 C.3     1  UNL1        0.0172
     31 C         142.4390  138.0178  162.7784 C.3     1  UNL1        0.0689
     32 N         141.3629  136.9744  162.8344 N.3     1  UNL1       -0.3209
     33 H         141.1217  136.7867  163.8076 H       1  UNL1        0.1189
     34 H         141.6977  136.1167  162.3956 H       1  UNL1        0.1189
@<TRIPOS>BOND
     1    14    15    1
     2    15    16   ar
     3    16    17   ar
     4    17    18   ar
     5    18    12    1
     6    12     1    1
     7     1     2   ar
     8     2     3   ar
     9     3    24    1
    10    26    24    1
    11    26    27    1
    12    27    28    1
    13    28    29    1
    14    29    30    1
    15    30    31    1
    16    31    32    1
    17     3     4   ar
    18     4     5   ar
    19     5     6   ar
    20     6     7    1
    21     7     8   am
    22     7     9    2
    23    18    19   ar
    24    19    20   ar
    25    20    21    1
    26    21    22    1
    27    21    23    1
    28    20    15   ar
    29     6     1   ar
    30    31    26    1
    31    12    13    1
    32    24    25    1
    33    32    33    1
    34    32    34    1
    35     8    10    1
    36     8    11    1
@<TRIPOS>MOLECULE
*****
 34 36 0 0 0
SMALL
GASTEIGER

@<TRIPOS>ATOM
      1 C         140.0756  139.9672  166.9817 C.ar    1  UNL1        0.0764
      2 C         139.8892  139.2321  165.6874 C.ar    1  UNL1        0.0522
      3 C         138.7371  138.2862  165.5213 C.ar    1  UNL1        0.1515
      4 N         137.7712  138.0752  166.6494 N.ar    1  UNL1       -0.1329
      5 N         137.9575  138.8102  167.9436 N.ar    1  UNL1       -0.1409
      6 C         139.1097  139.7562  168.1098 C.ar    1  UNL1        0.1691
      7 C         139.2961  140.4912  169.4040 C.2     1  UNL1        0.2635
      8 N         138.9653  139.8182  170.7031 N.am    1  UNL1       -0.3240
      9 O         139.8131  141.8992  169.3991 O.2     1  UNL1       -0.2686
     10 H         138.6260  138.8940  170.7063 H       1  UNL1        0.1453
     11 H         139.0876  140.3006  171.5525 H       1  UNL1        0.1453
     12 N         141.2277  140.9132  167.1478 N.pl3   1  UNL1       -0.2965
     13 H         141.6433  141.0322  168.0323 H       1  UNL1        0.1537
     14 C         143.3039  143.9714  162.4216 C.3     1  UNL1        0.0323
     15 C         142.7848  143.2068  163.6031 C.ar    1  UNL1       -0.0082
     16 C         141.6330  143.7462  164.3983 C.ar    1  UNL1       -0.0002
     17 C         141.1140  142.9816  165.5798 C.ar    1  UNL1        0.0341
     18 C         141.7468  141.6777  165.9662 C.ar    1  UNL1        0.1318
     19 N         142.8986  141.1383  165.1710 N.ar    1  UNL1       -0.2352
     20 C         143.4176  141.9029  163.9895 C.ar    1  UNL1        0.0560
     21 C         144.5695  141.3635  163.1943 C.3     1  UNL1        0.0400
     22 C         144.3138  140.4976  161.9965 C.3     1  UNL1        0.0063
     23 C         145.9770  141.6900  163.5969 C.3     1  UNL1        0.0063
     24 N         138.5507  137.5511  164.2270 N.pl3   1  UNL1       -0.3170
     25 H         138.1587  136.6480  164.2258 H       1  UNL1        0.1482
     26 C         138.9616  138.1921  162.9346 C.3     1  UNL1        0.0845
     27 C         138.0499  139.1750  162.2617 C.3     1  UNL1        0.0209
     28 C         138.4609  139.8160  160.9693 C.3     1  UNL1        0.0018
     29 C         139.7835  139.4740  160.3498 C.3     1  UNL1        0.0015
     30 C         140.6951  138.4910  161.0227 C.3     1  UNL1        0.0172
     31 C         140.2842  137.8501  162.3151 C.3     1  UNL1        0.0689
     32 N         141.1958  136.8672  162.9880 N.3     1  UNL1       -0.3209
     33 H         140.7608  136.5337  163.8482 H       1  UNL1        0.1189
     34 H         142.0819  137.3215  163.2090 H       1  UNL1        0.1189
@<TRIPOS>BOND
     1    14    15    1
     2    15    16   ar
     3    16    17   ar
     4    17    18   ar
     5    18    12    1
     6    12     1    1
     7     1     2   ar
     8     2     3   ar
     9     3    24    1
    10    26    24    1
    11    26    27    1
    12    27    28    1
    13    28    29    1
    14    29    30    1
    15    30    31    1
    16    31    32    1
    17     3     4   ar
    18     4     5   ar
    19     5     6   ar
    20     6     7    1
    21     7     8   am
    22     7     9    2
    23    18    19   ar
    24    19    20   ar
    25    20    21    1
    26    21    22    1
    27    21    23    1
    28    20    15   ar
    29     6     1   ar
    30    31    26    1
    31    12    13    1
    32    24    25    1
    33    32    33    1
    34    32    34    1
    35     8    10    1
    36     8    11    1
@<TRIPOS>MOLECULE
*****
 34 36 0 0 0
SMALL
GASTEIGER

@<TRIPOS>ATOM
      1 C         140.7369  140.0354  167.4685 C.ar    1  UNL1        0.0764
      2 C         141.6255  139.5296  166.3709 C.ar    1  UNL1        0.0522
      3 C         142.9256  138.8610  166.7065 C.ar    1  UNL1        0.1515
      4 N         143.3372  138.6983  168.1397 N.ar    1  UNL1       -0.1329
      5 N         142.4487  139.2040  169.2373 N.ar    1  UNL1       -0.1409
      6 C         141.1485  139.8726  168.9017 C.ar    1  UNL1        0.1691
      7 C         140.2600  140.3783  169.9993 C.2     1  UNL1        0.2635
      8 N         139.9456  139.5005  171.1742 N.am    1  UNL1       -0.3240
      9 O         139.6858  141.7619  169.9218 O.2     1  UNL1       -0.2686
     10 H         140.3224  138.5924  171.2250 H       1  UNL1        0.1453
     11 H         139.3624  139.8325  171.8946 H       1  UNL1        0.1453
     12 N         139.4368  140.7039  167.1329 N.pl3   1  UNL1       -0.2965
     13 H         138.7817  140.8911  167.8435 H       1  UNL1        0.1537
     14 C         138.2285  142.2370  161.4593 C.3     1  UNL1        0.0323
     15 C         138.5306  141.8538  162.8777 C.ar    1  UNL1       -0.0082
     16 C         137.8171  140.6957  163.5098 C.ar    1  UNL1       -0.0002
     17 C         138.1191  140.3124  164.9282 C.ar    1  UNL1        0.0341
     18 C         139.1347  141.0872  165.7145 C.ar    1  UNL1        0.1318
     19 N         139.8482  142.2453  165.0823 N.ar    1  UNL1       -0.2352
     20 C         139.5462  142.6285  163.6639 C.ar    1  UNL1        0.0560
     21 C         140.2598  143.7867  163.0317 C.3     1  UNL1        0.0400
     22 C         139.6534  145.1578  163.0795 C.3     1  UNL1        0.0063
     23 C         141.5798  143.5737  162.3519 C.3     1  UNL1        0.0063
     24 N         143.8142  138.3552  165.6089 N.pl3   1  UNL1       -0.3170
     25 H         144.2739  137.4902  165.7070 H       1  UNL1        0.1482
     26 C         144.0022  139.1674  164.3619 C.3     1  UNL1        0.0845
     27 C         144.9458  140.3336  164.3616 C.3     1  UNL1        0.0209
     28 C         145.1338  141.1458  163.1146 C.3     1  UNL1        0.0018
     29 C         144.3783  140.7918  161.8679 C.3     1  UNL1        0.0015
     30 C         143.4349  139.6257  161.8683 C.3     1  UNL1        0.0172
     31 C         143.2468  138.8135  163.1153 C.3     1  UNL1        0.0689
     32 N         142.3033  137.6474  163.1157 N.3     1  UNL1       -0.3209
     33 H         142.2995  137.2135  164.0388 H       1  UNL1        0.1189
     34 H         142.6058  136.9651  162.4205 H       1  UNL1        0.1189
@<TRIPOS>BOND
     1    14    15    1
     2    15    16   ar
     3    16    17   ar
     4    17    18   ar
     5    18    12    1
     6    12     1    1
     7     1     2   ar
     8     2     3   ar
     9     3    24    1
    10    26    24    1
    11    26    27    1
    12    27    28    1
    13    28    29    1
    14    29    30    1
    15    30    31    1
    16    31    32    1
    17     3     4   ar
    18     4     5   ar
    19     5     6   ar
    20     6     7    1
    21     7     8   am
    22     7     9    2
    23    18    19   ar
    24    19    20   ar
    25    20    21    1
    26    21    22    1
    27    21    23    1
    28    20    15   ar
    29     6     1   ar
    30    31    26    1
    31    12    13    1
    32    24    25    1
    33    32    33    1
    34    32    34    1
    35     8    10    1
    36     8    11    1
@<TRIPOS>MOLECULE
*****
 34 36 0 0 0
SMALL
GASTEIGER

@<TRIPOS>ATOM
      1 C         143.5361  142.4028  160.7994 C.ar    1  UNL1        0.0764
      2 C         142.6960  143.2561  161.7028 C.ar    1  UNL1        0.0522
      3 C         141.9810  144.4540  161.1518 C.ar    1  UNL1        0.1515
      4 N         142.1060  144.7987  159.6973 N.ar    1  UNL1       -0.1329
      5 N         142.9461  143.9455  158.7939 N.ar    1  UNL1       -0.1409
      6 C         143.6612  142.7475  159.3449 C.ar    1  UNL1        0.1691
      7 C         144.5012  141.8943  158.4415 C.2     1  UNL1        0.2635
      8 N         145.5026  142.5323  157.5248 N.am    1  UNL1       -0.3240
      9 O         144.3400  140.4031  158.4547 O.2     1  UNL1       -0.2686
     10 H         145.6084  143.5110  157.5161 H       1  UNL1        0.1453
     11 H         146.0539  141.9722  156.9318 H       1  UNL1        0.1453
     12 N         144.2511  141.2049  161.3504 N.pl3   1  UNL1       -0.2965
     13 H         145.2240  141.1138  161.2301 H       1  UNL1        0.1537
     14 C         141.1821  136.9679  164.2880 C.3     1  UNL1        0.0323
     15 C         141.9493  138.0271  163.5536 C.ar    1  UNL1       -0.0082
     16 C         141.8778  138.1037  162.0573 C.ar    1  UNL1       -0.0002
     17 C         142.6450  139.1629  161.3229 C.ar    1  UNL1        0.0341
     18 C         143.4838  140.1456  162.0848 C.ar    1  UNL1        0.1318
     19 N         143.5554  140.0691  163.5811 N.ar    1  UNL1       -0.2352
     20 C         142.7882  139.0099  164.3155 C.ar    1  UNL1        0.0560
     21 C         142.8598  138.9334  165.8119 C.3     1  UNL1        0.0400
     22 C         143.8954  138.0706  166.4701 C.3     1  UNL1        0.0063
     23 C         141.8958  139.7196  166.6501 C.3     1  UNL1        0.0063
     24 N         141.1408  145.3073  162.0552 N.pl3   1  UNL1       -0.3170
     25 H         141.3232  146.2718  162.1312 H       1  UNL1        0.1482
     26 C         140.0229  144.6911  162.8429 C.3     1  UNL1        0.0845
     27 C         139.9918  144.8305  164.3361 C.3     1  UNL1        0.0209
     28 C         138.8738  144.2143  165.1238 C.3     1  UNL1        0.0018
     29 C         137.7870  143.4586  164.4182 C.3     1  UNL1        0.0015
     30 C         137.8181  143.3191  162.9251 C.3     1  UNL1        0.0172
     31 C         138.9361  143.9354  162.1374 C.3     1  UNL1        0.0689
     32 N         138.9672  143.7960  160.6443 N.3     1  UNL1       -0.3209
     33 H         139.7904  144.2722  160.2754 H       1  UNL1        0.1189
     34 H         138.1260  144.2134  160.2462 H       1  UNL1        0.1189
@<TRIPOS>BOND
     1    14    15    1
     2    15    16   ar
     3    16    17   ar
     4    17    18   ar
     5    18    12    1
     6    12     1    1
     7     1     2   ar
     8     2     3   ar
     9     3    24    1
    10    26    24    1
    11    26    27    1
    12    27    28    1
    13    28    29    1
    14    29    30    1
    15    30    31    1
    16    31    32    1
    17     3     4   ar
    18     4     5   ar
    19     5     6   ar
    20     6     7    1
    21     7     8   am
    22     7     9    2
    23    18    19   ar
    24    19    20   ar
    25    20    21    1
    26    21    22    1
    27    21    23    1
    28    20    15   ar
    29     6     1   ar
    30    31    26    1
    31    12    13    1
    32    24    25    1
    33    32    33    1
    34    32    34    1
    35     8    10    1
    36     8    11    1
@<TRIPOS>MOLECULE
*****
 34 36 0 0 0
SMALL
GASTEIGER

@<TRIPOS>ATOM
      1 C         140.5591  139.6335  160.2788 C.ar    1  UNL1        0.0764
      2 C         139.5213  140.5549  160.8481 C.ar    1  UNL1        0.0522
      3 C         139.1876  141.8359  160.1429 C.ar    1  UNL1        0.1515
      4 N         139.8918  142.1958  158.8683 N.ar    1  UNL1       -0.1329
      5 N         140.9296  141.2746  158.2989 N.ar    1  UNL1       -0.1409
      6 C         141.2633  139.9934  159.0042 C.ar    1  UNL1        0.1691
      7 C         142.3011  139.0722  158.4348 C.2     1  UNL1        0.2635
      8 N         143.7213  139.5352  158.2983 N.am    1  UNL1       -0.3240
      9 O         141.9188  137.6879  158.0019 O.2     1  UNL1       -0.2686
     10 H         143.9723  140.4438  158.5825 H       1  UNL1        0.1453
     11 H         144.4025  138.9306  157.9246 H       1  UNL1        0.1453
     12 N         140.8928  138.3524  160.9840 N.pl3   1  UNL1       -0.2965
     13 H         140.7178  137.4888  160.5450 H       1  UNL1        0.1537
     14 C         143.2938  138.4912  166.4809 C.3     1  UNL1        0.0323
     15 C         142.6936  138.4565  165.1067 C.ar    1  UNL1       -0.0082
     16 C         141.7536  137.3512  164.7265 C.ar    1  UNL1       -0.0002
     17 C         141.1533  137.3165  163.3523 C.ar    1  UNL1        0.0341
     18 C         141.4931  138.3871  162.3583 C.ar    1  UNL1        0.1318
     19 N         142.4330  139.4925  162.7384 N.ar    1  UNL1       -0.2352
     20 C         143.0333  139.5272  164.1126 C.ar    1  UNL1        0.0560
     21 C         143.9733  140.6326  164.4928 C.3     1  UNL1        0.0400
     22 C         145.4220  140.5491  164.1129 C.3     1  UNL1        0.0063
     23 C         143.4646  141.8216  165.2528 C.3     1  UNL1        0.0063
     24 N         138.1498  142.7573  160.7123 N.pl3   1  UNL1       -0.3170
     25 H         137.3766  143.0259  160.1652 H       1  UNL1        0.1482
     26 C         138.2900  143.2693  162.1152 C.3     1  UNL1        0.0845
     27 C         139.1276  144.4828  162.3905 C.3     1  UNL1        0.0209
     28 C         139.2678  144.9949  163.7934 C.3     1  UNL1        0.0018
     29 C         138.5703  144.2933  164.9210 C.3     1  UNL1        0.0015
     30 C         137.7328  143.0798  164.6457 C.3     1  UNL1        0.0172
     31 C         137.5926  142.5678  163.2428 C.3     1  UNL1        0.0689
     32 N         136.7550  141.3543  162.9675 N.3     1  UNL1       -0.3209
     33 H         136.7714  141.1494  161.9684 H       1  UNL1        0.1189
     34 H         135.7946  141.5299  163.2628 H       1  UNL1        0.1189
@<TRIPOS>BOND
     1    14    15    1
     2    15    16   ar
     3    16    17   ar
     4    17    18   ar
     5    18    12    1
     6    12     1    1
     7     1     2   ar
     8     2     3   ar
     9     3    24    1
    10    26    24    1
    11    26    27    1
    12    27    28    1
    13    28    29    1
    14    29    30    1
    15    30    31    1
    16    31    32    1
    17     3     4   ar
    18     4     5   ar
    19     5     6   ar
    20     6     7    1
    21     7     8   am
    22     7     9    2
    23    18    19   ar
    24    19    20   ar
    25    20    21    1
    26    21    22    1
    27    21    23    1
    28    20    15   ar
    29     6     1   ar
    30    31    26    1
    31    12    13    1
    32    24    25    1
    33    32    33    1
    34    32    34    1
    35     8    10    1
    36     8    11    1
