@<TRIPOS>MOLECULE
*****
 36 41 0 0 0
SMALL
GASTEIGER

@<TRIPOS>ATOM
      1 N         141.7367  139.4299  160.2993 N.3     1  UNL1       -0.2689
      2 C         142.1712  140.4515  161.3079 C.3     1  UNL1        0.0724
      3 C         141.5658  140.4552  162.6803 C.3     1  UNL1        0.0195
      4 C         140.5259  139.4372  163.0440 C.3     1  UNL1        0.0300
      5 C         140.0914  138.4156  162.0354 C.3     1  UNL1        0.0195
      6 C         140.6968  138.4119  160.6630 C.3     1  UNL1        0.0724
      7 C         139.4813  138.4867  163.5494 C.3     1  UNL1        0.0873
      8 C         139.1685  138.8541  164.9698 C.2     1  UNL1        0.2294
      9 O         138.1784  138.1649  165.8612 O.2     1  UNL1       -0.2745
     10 N         140.0198  140.0317  165.3421 N.am    1  UNL1       -0.2586
     11 C         140.8587  140.3921  164.1520 C.3     1  UNL1        0.0986
     12 C         140.0304  140.7269  166.6712 C.ar    1  UNL1        0.0538
     13 C         139.6634  139.9729  167.9149 C.ar    1  UNL1        0.0149
     14 C         139.6740  140.6680  169.2441 C.ar    1  UNL1        0.0024
     15 C         140.0515  142.1172  169.3295 C.ar    1  UNL1        0.0141
     16 C         140.4185  142.8713  168.0858 C.ar    1  UNL1        0.0024
     17 C         140.4079  142.1761  166.7567 C.ar    1  UNL1        0.0149
     18 C         140.0620  142.8124  170.6587 C.2     1  UNL1        0.0729
     19 O         140.4505  142.0588  171.8962 O.co2   1  UNL1       -0.5446
     20 O         139.6842  144.2611  170.7504 O.co2   1  UNL1       -0.5446
     21 C         142.3422  139.4262  158.9269 C.3     1  UNL1        0.1007
     22 N         142.2806  136.1709  156.8139 N.ar    1  UNL1       -0.3282
     23 C         142.9100  137.0418  157.8605 C.ar    1  UNL1        0.0728
     24 C         142.0773  138.2823  157.9934 C.ar    1  UNL1        0.0122
     25 C         140.9332  138.1781  157.0289 C.ar    1  UNL1        0.0106
     26 C         139.7932  139.1029  156.7202 C.ar    1  UNL1       -0.0213
     27 C         138.7789  138.7228  155.6826 C.ar    1  UNL1       -0.0042
     28 C         138.9046  137.4178  154.9537 C.ar    1  UNL1        0.0012
     29 C         140.0445  136.4932  155.2623 C.ar    1  UNL1        0.0172
     30 C         141.0589  136.8732  156.2999 C.ar    1  UNL1        0.0593
     31 C         143.2279  133.8168  157.3713 C.3     1  UNL1        0.0245
     32 C         142.7845  134.8327  156.3608 C.3     1  UNL1        0.0856
     33 C         142.8449  134.5104  154.8970 C.3     1  UNL1        0.0245
     34 C         139.6676  140.4078  157.4492 C.3     1  UNL1        0.0224
     35 C         140.0111  141.8623  157.5778 C.3     1  UNL1        0.0047
     36 C         139.1066  141.2135  158.5833 C.3     1  UNL1        0.0047
@<TRIPOS>UNITY_ATOM_ATTR
19 1
charge -1
@<TRIPOS>BOND
     1    31    32    1
     2    32    33    1
     3    32    22    1
     4    22    23   ar
     5    23    24   ar
     6    24    21    1
     7    21     1    1
     8     1     2    1
     9     2     3    1
    10     3     4    1
    11     4     5    1
    12     5     6    1
    13     4     7    1
    14     7     8    1
    15     8     9    2
    16     8    10   am
    17    10    12    1
    18    12    13   ar
    19    13    14   ar
    20    14    15   ar
    21    15    18    1
    22    18    19   ar
    23    18    20   ar
    24    15    16   ar
    25    16    17   ar
    26    10    11    1
    27    24    25   ar
    28    25    26   ar
    29    26    34    1
    30    34    35    1
    31    35    36    1
    32    26    27   ar
    33    27    28   ar
    34    28    29   ar
    35    29    30   ar
    36    30    22   ar
    37     6     1    1
    38    17    12   ar
    39    30    25   ar
    40    11     4    1
    41    36    34    1
@<TRIPOS>MOLECULE
*****
 36 41 0 0 0
SMALL
GASTEIGER

@<TRIPOS>ATOM
      1 N         140.7110  143.1027  159.9875 N.3     1  UNL1       -0.2689
      2 C         141.1447  142.0663  160.9813 C.3     1  UNL1        0.0724
      3 C         140.8016  142.2288  162.4324 C.3     1  UNL1        0.0195
      4 C         140.0247  143.4276  162.8898 C.3     1  UNL1        0.0300
      5 C         139.5909  144.4640  161.8960 C.3     1  UNL1        0.0195
      6 C         139.9340  144.3016  160.4449 C.3     1  UNL1        0.0724
      7 C         139.2575  144.5671  163.4922 C.3     1  UNL1        0.0873
      8 C         139.1471  144.3228  164.9681 C.2     1  UNL1        0.2294
      9 O         138.4587  145.2128  165.9601 O.2     1  UNL1       -0.2745
     10 N         139.8462  143.0322  165.2778 N.am    1  UNL1       -0.2586
     11 C         140.3885  142.4790  163.9934 C.3     1  UNL1        0.0986
     12 C         139.9795  142.4051  166.6338 C.ar    1  UNL1        0.0538
     13 C         140.3610  143.2469  167.8153 C.ar    1  UNL1        0.0149
     14 C         140.4943  142.6197  169.1713 C.ar    1  UNL1        0.0024
     15 C         140.2460  141.1508  169.3460 C.ar    1  UNL1        0.0141
     16 C         139.8645  140.3089  168.1645 C.ar    1  UNL1        0.0024
     17 C         139.7312  140.9362  166.8085 C.ar    1  UNL1        0.0149
     18 C         140.3793  140.5236  170.7021 C.2     1  UNL1        0.0729
     19 O         139.4197  139.4534  171.1310 O.co2   1  UNL1       -0.5446
     20 O         141.4721  140.9666  171.6291 O.co2   1  UNL1       -0.5446
     21 C         141.0541  142.9403  158.5363 C.3     1  UNL1        0.1007
     22 N         139.7736  145.5032  155.9177 N.ar    1  UNL1       -0.3282
     23 C         140.8007  145.0475  156.9113 C.ar    1  UNL1        0.0728
     24 C         140.3325  143.7497  157.4999 C.ar    1  UNL1        0.0122
     25 C         139.0159  143.4033  156.8701 C.ar    1  UNL1        0.0106
     26 C         138.0869  142.2411  157.0606 C.ar    1  UNL1       -0.0213
     27 C         136.8126  142.1625  156.2733 C.ar    1  UNL1       -0.0042
     28 C         136.4672  143.2464  155.2955 C.ar    1  UNL1        0.0012
     29 C         137.3961  144.4085  155.1050 C.ar    1  UNL1        0.0172
     30 C         138.6705  144.4870  155.8922 C.ar    1  UNL1        0.0593
     31 C         139.0499  147.9639  155.5038 C.3     1  UNL1        0.0245
     32 C         139.8381  146.7553  155.0942 C.3     1  UNL1        0.0856
     33 C         140.6910  146.7987  153.8610 C.3     1  UNL1        0.0245
     34 C         138.4324  141.1573  158.0384 C.3     1  UNL1        0.0224
     35 C         138.2670  140.5247  159.3884 C.3     1  UNL1        0.0047
     36 C         139.1961  139.9129  158.3821 C.3     1  UNL1        0.0047
@<TRIPOS>UNITY_ATOM_ATTR
19 1
charge -1
@<TRIPOS>BOND
     1    31    32    1
     2    32    33    1
     3    32    22    1
     4    22    23   ar
     5    23    24   ar
     6    24    21    1
     7    21     1    1
     8     1     2    1
     9     2     3    1
    10     3     4    1
    11     4     5    1
    12     5     6    1
    13     4     7    1
    14     7     8    1
    15     8     9    2
    16     8    10   am
    17    10    12    1
    18    12    13   ar
    19    13    14   ar
    20    14    15   ar
    21    15    18    1
    22    18    19   ar
    23    18    20   ar
    24    15    16   ar
    25    16    17   ar
    26    10    11    1
    27    24    25   ar
    28    25    26   ar
    29    26    34    1
    30    34    35    1
    31    35    36    1
    32    26    27   ar
    33    27    28   ar
    34    28    29   ar
    35    29    30   ar
    36    30    22   ar
    37     6     1    1
    38    17    12   ar
    39    30    25   ar
    40    11     4    1
    41    36    34    1
@<TRIPOS>MOLECULE
*****
 36 41 0 0 0
SMALL
GASTEIGER

@<TRIPOS>ATOM
      1 N         143.0373  140.9516  160.3835 N.3     1  UNL1       -0.2689
      2 C         142.8090  139.5003  160.6860 C.3     1  UNL1        0.0724
      3 C         142.7645  138.4995  159.5696 C.3     1  UNL1        0.0195
      4 C         142.9483  138.9501  158.1507 C.3     1  UNL1        0.0300
      5 C         143.1767  140.4014  157.8482 C.3     1  UNL1        0.0195
      6 C         143.2212  141.4021  158.9646 C.3     1  UNL1        0.0724
      7 C         143.1147  139.2501  156.6904 C.3     1  UNL1        0.0873
      8 C         142.9988  137.9589  155.9357 C.2     1  UNL1        0.2294
      9 O         143.1027  137.7947  154.4483 O.2     1  UNL1       -0.2745
     10 N         142.7608  136.8609  156.9296 N.am    1  UNL1       -0.2586
     11 C         142.7296  137.4734  158.2984 C.3     1  UNL1        0.0986
     12 C         142.5849  135.4059  156.6105 C.ar    1  UNL1        0.0538
     13 C         141.6021  134.9819  155.5597 C.ar    1  UNL1        0.0149
     14 C         141.4262  133.5268  155.2406 C.ar    1  UNL1        0.0024
     15 C         142.2331  132.4957  155.9724 C.ar    1  UNL1        0.0141
     16 C         143.2160  132.9196  157.0234 C.ar    1  UNL1        0.0024
     17 C         143.3918  134.3747  157.3423 C.ar    1  UNL1        0.0149
     18 C         142.0572  131.0406  155.6534 C.2     1  UNL1        0.0729
     19 O         140.7988  130.5650  154.9899 O.co2   1  UNL1       -0.5446
     20 O         143.1397  130.0610  155.9979 O.co2   1  UNL1       -0.5446
     21 C         143.0818  141.9525  161.4999 C.3     1  UNL1        0.1007
     22 N         139.6243  142.5432  163.1618 N.ar    1  UNL1       -0.3282
     23 C         140.4927  142.4477  161.9425 C.ar    1  UNL1        0.0728
     24 C         141.8894  142.1352  162.3913 C.ar    1  UNL1        0.0122
     25 C         141.8843  142.0376  163.8881 C.ar    1  UNL1        0.0106
     26 C         142.9735  141.7517  164.8791 C.ar    1  UNL1       -0.0213
     27 C         142.6629  141.7179  166.3462 C.ar    1  UNL1       -0.0042
     28 C         141.2630  141.9701  166.8224 C.ar    1  UNL1        0.0012
     29 C         140.1739  142.2560  165.8314 C.ar    1  UNL1        0.0172
     30 C         140.4845  142.2897  164.3644 C.ar    1  UNL1        0.0593
     31 C         137.6756  144.2614  163.1534 C.3     1  UNL1        0.0245
     32 C         138.1541  142.8400  163.1762 C.3     1  UNL1        0.0856
     33 C         137.1622  141.7154  163.2134 C.3     1  UNL1        0.0245
     34 C         144.3734  141.4996  164.4029 C.3     1  UNL1        0.0224
     35 C         145.4683  140.5419  164.0366 C.3     1  UNL1        0.0047
     36 C         145.7032  142.0205  163.9443 C.3     1  UNL1        0.0047
@<TRIPOS>UNITY_ATOM_ATTR
19 1
charge -1
@<TRIPOS>BOND
     1    31    32    1
     2    32    33    1
     3    32    22    1
     4    22    23   ar
     5    23    24   ar
     6    24    21    1
     7    21     1    1
     8     1     2    1
     9     2     3    1
    10     3     4    1
    11     4     5    1
    12     5     6    1
    13     4     7    1
    14     7     8    1
    15     8     9    2
    16     8    10   am
    17    10    12    1
    18    12    13   ar
    19    13    14   ar
    20    14    15   ar
    21    15    18    1
    22    18    19   ar
    23    18    20   ar
    24    15    16   ar
    25    16    17   ar
    26    10    11    1
    27    24    25   ar
    28    25    26   ar
    29    26    34    1
    30    34    35    1
    31    35    36    1
    32    26    27   ar
    33    27    28   ar
    34    28    29   ar
    35    29    30   ar
    36    30    22   ar
    37     6     1    1
    38    17    12   ar
    39    30    25   ar
    40    11     4    1
    41    36    34    1
@<TRIPOS>MOLECULE
*****
 36 41 0 0 0
SMALL
GASTEIGER

@<TRIPOS>ATOM
      1 N         141.0283  139.1242  160.0277 N.3     1  UNL1       -0.2689
      2 C         140.3269  140.1080  160.9166 C.3     1  UNL1        0.0724
      3 C         140.6543  140.1631  162.3794 C.3     1  UNL1        0.0195
      4 C         141.6830  139.2344  162.9532 C.3     1  UNL1        0.0300
      5 C         142.3843  138.2506  162.0643 C.3     1  UNL1        0.0195
      6 C         142.0570  138.1955  160.6016 C.3     1  UNL1        0.0724
      7 C         142.6835  138.3735  163.6659 C.3     1  UNL1        0.0873
      8 C         142.6862  138.7672  165.1134 C.2     1  UNL1        0.2294
      9 O         143.5382  138.1628  166.1899 O.2     1  UNL1       -0.2745
     10 N         141.6873  139.8714  165.2953 N.am    1  UNL1       -0.2586
     11 C         141.0673  140.1602  163.9603 C.3     1  UNL1        0.0986
     12 C         141.3651  140.5650  166.5856 C.ar    1  UNL1        0.0538
     13 C         140.2238  140.0833  167.4314 C.ar    1  UNL1        0.0149
     14 C         139.9016  140.7769  168.7217 C.ar    1  UNL1        0.0024
     15 C         140.7206  141.9524  169.1663 C.ar    1  UNL1        0.0141
     16 C         141.8619  142.4342  168.3205 C.ar    1  UNL1        0.0024
     17 C         142.1841  141.7405  167.0301 C.ar    1  UNL1        0.0149
     18 C         140.3983  142.6460  170.4567 C.2     1  UNL1        0.0729
     19 O         140.5967  141.9329  171.7614 O.co2   1  UNL1       -0.5446
     20 O         139.8776  144.0527  170.4423 O.co2   1  UNL1       -0.5446
     21 C         140.7009  139.0690  158.5649 C.3     1  UNL1        0.1007
     22 N         142.6957  136.7483  156.1773 N.ar    1  UNL1       -0.3282
     23 C         141.5463  136.9922  157.1098 C.ar    1  UNL1        0.0728
     24 C         141.6462  138.4031  157.6094 C.ar    1  UNL1        0.0122
     25 C         142.8572  139.0311  156.9857 C.ar    1  UNL1        0.0106
     26 C         143.4532  140.4021  157.1093 C.ar    1  UNL1       -0.0213
     27 C         144.6977  140.7504  156.3480 C.ar    1  UNL1       -0.0042
     28 C         145.3464  139.7276  155.4629 C.ar    1  UNL1        0.0012
     29 C         144.7504  138.3567  155.3393 C.ar    1  UNL1        0.0172
     30 C         143.5059  138.0084  156.1007 C.ar    1  UNL1        0.0593
     31 C         143.7583  134.3780  156.1281 C.3     1  UNL1        0.0245
     32 C         142.9843  135.4689  155.4494 C.3     1  UNL1        0.0856
     33 C         142.4987  135.2804  154.0427 C.3     1  UNL1        0.0245
     34 C         142.8045  141.4248  157.9944 C.3     1  UNL1        0.0224
     35 C         142.7518  142.1720  159.2939 C.3     1  UNL1        0.0047
     36 C         141.7337  142.4489  158.2278 C.3     1  UNL1        0.0047
@<TRIPOS>UNITY_ATOM_ATTR
19 1
charge -1
@<TRIPOS>BOND
     1    31    32    1
     2    32    33    1
     3    32    22    1
     4    22    23   ar
     5    23    24   ar
     6    24    21    1
     7    21     1    1
     8     1     2    1
     9     2     3    1
    10     3     4    1
    11     4     5    1
    12     5     6    1
    13     4     7    1
    14     7     8    1
    15     8     9    2
    16     8    10   am
    17    10    12    1
    18    12    13   ar
    19    13    14   ar
    20    14    15   ar
    21    15    18    1
    22    18    19   ar
    23    18    20   ar
    24    15    16   ar
    25    16    17   ar
    26    10    11    1
    27    24    25   ar
    28    25    26   ar
    29    26    34    1
    30    34    35    1
    31    35    36    1
    32    26    27   ar
    33    27    28   ar
    34    28    29   ar
    35    29    30   ar
    36    30    22   ar
    37     6     1    1
    38    17    12   ar
    39    30    25   ar
    40    11     4    1
    41    36    34    1
@<TRIPOS>MOLECULE
*****
 36 41 0 0 0
SMALL
GASTEIGER

@<TRIPOS>ATOM
      1 N         143.2100  140.2268  164.0815 N.3     1  UNL1       -0.2689
      2 C         144.0857  139.7537  162.9594 C.3     1  UNL1        0.0724
      3 C         144.1337  140.5205  161.6711 C.3     1  UNL1        0.0195
      4 C         143.3059  141.7604  161.5050 C.3     1  UNL1        0.0300
      5 C         142.4302  142.2334  162.6271 C.3     1  UNL1        0.0195
      6 C         142.3822  141.4666  163.9154 C.3     1  UNL1        0.0724
      7 C         142.5384  143.0111  161.1943 C.3     1  UNL1        0.0873
      8 C         142.8880  143.4349  159.7984 C.2     1  UNL1        0.2294
      9 O         142.3487  144.6365  159.0806 O.2     1  UNL1       -0.2745
     10 N         143.8716  142.4459  159.2464 N.am    1  UNL1       -0.2586
     11 C         144.1298  141.4110  160.3011 C.3     1  UNL1        0.0986
     12 C         144.4885  142.4849  157.8798 C.ar    1  UNL1        0.0538
     13 C         145.9810  142.4974  157.7307 C.ar    1  UNL1        0.0149
     14 C         146.5979  142.5365  156.3640 C.ar    1  UNL1        0.0024
     15 C         145.7223  142.5631  155.1464 C.ar    1  UNL1        0.0141
     16 C         144.2297  142.5506  155.2954 C.ar    1  UNL1        0.0024
     17 C         143.6129  142.5115  156.6622 C.ar    1  UNL1        0.0149
     18 C         146.3392  142.6021  153.7797 C.2     1  UNL1        0.0729
     19 O         145.4673  142.5337  152.5610 O.co2   1  UNL1       -0.5446
     20 O         147.8280  142.7097  153.6316 O.co2   1  UNL1       -0.5446
     21 C         143.1620  139.4600  165.3699 C.3     1  UNL1        0.1007
     22 N         141.1667  140.8038  168.4159 N.ar    1  UNL1       -0.3282
     23 C         142.4392  140.6911  167.6297 C.ar    1  UNL1        0.0728
     24 C         142.1678  139.8342  166.4288 C.ar    1  UNL1        0.0122
     25 C         140.7276  139.4173  166.4728 C.ar    1  UNL1        0.0106
     26 C         139.8995  138.5695  165.5533 C.ar    1  UNL1       -0.0213
     27 C         138.4527  138.3209  165.8618 C.ar    1  UNL1       -0.0042
     28 C         137.8341  138.9201  167.0899 C.ar    1  UNL1        0.0012
     29 C         138.6621  139.7679  168.0094 C.ar    1  UNL1        0.0172
     30 C         140.1089  140.0165  167.7009 C.ar    1  UNL1        0.0593
     31 C         141.1472  140.8759  171.0129 C.3     1  UNL1        0.0245
     32 C         140.9842  141.5693  169.6929 C.3     1  UNL1        0.0856
     33 C         140.6386  143.0283  169.6498 C.3     1  UNL1        0.0245
     34 C         140.5181  137.9703  164.3252 C.3     1  UNL1        0.0224
     35 C         140.7448  137.9911  162.8426 C.3     1  UNL1        0.0047
     36 C         141.3631  136.9117  163.6808 C.3     1  UNL1        0.0047
@<TRIPOS>UNITY_ATOM_ATTR
19 1
charge -1
@<TRIPOS>BOND
     1    31    32    1
     2    32    33    1
     3    32    22    1
     4    22    23   ar
     5    23    24   ar
     6    24    21    1
     7    21     1    1
     8     1     2    1
     9     2     3    1
    10     3     4    1
    11     4     5    1
    12     5     6    1
    13     4     7    1
    14     7     8    1
    15     8     9    2
    16     8    10   am
    17    10    12    1
    18    12    13   ar
    19    13    14   ar
    20    14    15   ar
    21    15    18    1
    22    18    19   ar
    23    18    20   ar
    24    15    16   ar
    25    16    17   ar
    26    10    11    1
    27    24    25   ar
    28    25    26   ar
    29    26    34    1
    30    34    35    1
    31    35    36    1
    32    26    27   ar
    33    27    28   ar
    34    28    29   ar
    35    29    30   ar
    36    30    22   ar
    37     6     1    1
    38    17    12   ar
    39    30    25   ar
    40    11     4    1
    41    36    34    1
@<TRIPOS>MOLECULE
*****
 36 41 0 0 0
SMALL
GASTEIGER

@<TRIPOS>ATOM
      1 N         140.2517  140.3356  159.8685 N.3     1  UNL1       -0.2689
      2 C         140.6753  141.3468  160.8921 C.3     1  UNL1        0.0724
      3 C         140.3983  141.1036  162.3460 C.3     1  UNL1        0.0195
      4 C         139.6976  139.8491  162.7764 C.3     1  UNL1        0.0300
      5 C         139.2739  138.8378  161.7528 C.3     1  UNL1        0.0195
      6 C         139.5509  139.0811  160.2989 C.3     1  UNL1        0.0724
      7 C         139.0096  138.6478  163.3539 C.3     1  UNL1        0.0873
      8 C         138.9467  138.8207  164.8427 C.2     1  UNL1        0.2294
      9 O         138.3410  137.8550  165.8177 O.2     1  UNL1       -0.2745
     10 N         139.5959  140.1289  165.1852 N.am    1  UNL1       -0.2586
     11 C         140.0600  140.7644  163.9082 C.3     1  UNL1        0.0986
     12 C         139.7534  140.7010  166.5628 C.ar    1  UNL1        0.0538
     13 C         139.3213  139.9059  167.7590 C.ar    1  UNL1        0.0149
     14 C         139.4787  140.4780  169.1366 C.ar    1  UNL1        0.0024
     15 C         140.0684  141.8453  169.3180 C.ar    1  UNL1        0.0141
     16 C         140.5005  142.6405  168.1218 C.ar    1  UNL1        0.0024
     17 C         140.3430  142.0683  166.7442 C.ar    1  UNL1        0.0149
     18 C         140.2258  142.4175  170.6957 C.2     1  UNL1        0.0729
     19 O         141.4151  142.0455  171.5308 O.co2   1  UNL1       -0.5446
     20 O         139.1941  143.3615  171.2382 O.co2   1  UNL1       -0.5446
     21 C         140.5287  140.5788  158.4144 C.3     1  UNL1        0.1007
     22 N         139.2093  138.2279  155.6220 N.ar    1  UNL1       -0.3282
     23 C         139.1047  139.4843  156.4347 C.ar    1  UNL1        0.0728
     24 C         140.2466  139.5038  157.4072 C.ar    1  UNL1        0.0122
     25 C         141.0569  138.2594  157.1955 C.ar    1  UNL1        0.0106
     26 C         142.2958  137.7423  157.8648 C.ar    1  UNL1       -0.0213
     27 C         142.8936  136.4368  157.4309 C.ar    1  UNL1       -0.0042
     28 C         142.2524  135.6483  156.3275 C.ar    1  UNL1        0.0012
     29 C         141.0136  136.1653  155.6583 C.ar    1  UNL1        0.0172
     30 C         140.4159  137.4708  156.0922 C.ar    1  UNL1        0.0593
     31 C         138.8164  137.2451  153.2493 C.3     1  UNL1        0.0245
     32 C         138.2719  137.8032  154.5307 C.3     1  UNL1        0.0856
     33 C         136.7900  137.9365  154.7208 C.3     1  UNL1        0.0245
     34 C         142.9369  138.5308  158.9681 C.3     1  UNL1        0.0224
     35 C         143.2747  138.6955  160.4203 C.3     1  UNL1        0.0047
     36 C         143.7094  139.7319  159.4269 C.3     1  UNL1        0.0047
@<TRIPOS>UNITY_ATOM_ATTR
19 1
charge -1
@<TRIPOS>BOND
     1    31    32    1
     2    32    33    1
     3    32    22    1
     4    22    23   ar
     5    23    24   ar
     6    24    21    1
     7    21     1    1
     8     1     2    1
     9     2     3    1
    10     3     4    1
    11     4     5    1
    12     5     6    1
    13     4     7    1
    14     7     8    1
    15     8     9    2
    16     8    10   am
    17    10    12    1
    18    12    13   ar
    19    13    14   ar
    20    14    15   ar
    21    15    18    1
    22    18    19   ar
    23    18    20   ar
    24    15    16   ar
    25    16    17   ar
    26    10    11    1
    27    24    25   ar
    28    25    26   ar
    29    26    34    1
    30    34    35    1
    31    35    36    1
    32    26    27   ar
    33    27    28   ar
    34    28    29   ar
    35    29    30   ar
    36    30    22   ar
    37     6     1    1
    38    17    12   ar
    39    30    25   ar
    40    11     4    1
    41    36    34    1
@<TRIPOS>MOLECULE
*****
 36 41 0 0 0
SMALL
GASTEIGER

@<TRIPOS>ATOM
      1 N         142.9177  141.5877  160.0946 N.3     1  UNL1       -0.2689
      2 C         141.8808  142.0089  161.0933 C.3     1  UNL1        0.0724
      3 C         141.9286  141.4752  162.4943 C.3     1  UNL1        0.0195
      4 C         143.0132  140.5203  162.8966 C.3     1  UNL1        0.0300
      5 C         144.0500  140.0991  161.8979 C.3     1  UNL1        0.0195
      6 C         144.0023  140.6328  160.4969 C.3     1  UNL1        0.0724
      7 C         144.0321  139.5639  163.4415 C.3     1  UNL1        0.0873
      8 C         143.6990  139.3018  164.8805 C.2     1  UNL1        0.2294
      9 O         144.4575  138.4030  165.8115 O.2     1  UNL1       -0.2745
     10 N         142.4741  140.0963  165.2248 N.am    1  UNL1       -0.2586
     11 C         142.0502  140.8493  163.9987 C.3     1  UNL1        0.0986
     12 C         141.7928  140.1315  166.5606 C.ar    1  UNL1        0.0538
     13 C         140.3187  139.8716  166.6577 C.ar    1  UNL1        0.0149
     14 C         139.6373  139.9068  167.9936 C.ar    1  UNL1        0.0024
     15 C         140.4300  140.2019  169.2323 C.ar    1  UNL1        0.0141
     16 C         141.9042  140.4618  169.1352 C.ar    1  UNL1        0.0024
     17 C         142.5855  140.4266  167.7993 C.ar    1  UNL1        0.0149
     18 C         139.7487  140.2371  170.5682 C.2     1  UNL1        0.0729
     19 O         138.3332  139.7585  170.7010 O.co2   1  UNL1       -0.5446
     20 O         140.4827  140.7509  171.7712 O.co2   1  UNL1       -0.5446
     21 C         142.8701  142.1214  158.6935 C.3     1  UNL1        0.1007
     22 N         145.7244  141.4794  156.1429 N.ar    1  UNL1       -0.3282
     23 C         145.0450  142.3515  157.1567 C.ar    1  UNL1        0.0728
     24 C         143.8396  141.6179  157.6658 C.ar    1  UNL1        0.0122
     25 C         143.7742  140.2925  156.9666 C.ar    1  UNL1        0.0106
     26 C         142.8044  139.1524  157.0653 C.ar    1  UNL1       -0.0213
     27 C         142.9994  137.9267  156.2229 C.ar    1  UNL1       -0.0042
     28 C         144.1643  137.8411  155.2817 C.ar    1  UNL1        0.0012
     29 C         145.1340  138.9811  155.1830 C.ar    1  UNL1        0.0172
     30 C         144.9390  140.2068  156.0254 C.ar    1  UNL1        0.0593
     31 C         146.9243  141.9486  153.8868 C.3     1  UNL1        0.0245
     32 C         146.9705  141.8200  155.3805 C.3     1  UNL1        0.0856
     33 C         148.2629  142.0321  156.1118 C.3     1  UNL1        0.0245
     34 C         141.6395  139.2380  158.0065 C.3     1  UNL1        0.0224
     35 C         140.9713  138.8324  159.2867 C.3     1  UNL1        0.0047
     36 C         140.2902  139.7919  158.3564 C.3     1  UNL1        0.0047
@<TRIPOS>UNITY_ATOM_ATTR
19 1
charge -1
@<TRIPOS>BOND
     1    31    32    1
     2    32    33    1
     3    32    22    1
     4    22    23   ar
     5    23    24   ar
     6    24    21    1
     7    21     1    1
     8     1     2    1
     9     2     3    1
    10     3     4    1
    11     4     5    1
    12     5     6    1
    13     4     7    1
    14     7     8    1
    15     8     9    2
    16     8    10   am
    17    10    12    1
    18    12    13   ar
    19    13    14   ar
    20    14    15   ar
    21    15    18    1
    22    18    19   ar
    23    18    20   ar
    24    15    16   ar
    25    16    17   ar
    26    10    11    1
    27    24    25   ar
    28    25    26   ar
    29    26    34    1
    30    34    35    1
    31    35    36    1
    32    26    27   ar
    33    27    28   ar
    34    28    29   ar
    35    29    30   ar
    36    30    22   ar
    37     6     1    1
    38    17    12   ar
    39    30    25   ar
    40    11     4    1
    41    36    34    1
@<TRIPOS>MOLECULE
*****
 36 41 0 0 0
SMALL
GASTEIGER

@<TRIPOS>ATOM
      1 N         140.3325  139.5452  159.8434 N.3     1  UNL1       -0.2689
      2 C         140.8339  140.6275  160.7529 C.3     1  UNL1        0.0724
      3 C         140.5249  140.5775  162.2198 C.3     1  UNL1        0.0195
      4 C         139.7143  139.4451  162.7773 C.3     1  UNL1        0.0300
      5 C         139.2129  138.3628  161.8679 C.3     1  UNL1        0.0195
      6 C         139.5219  138.4129  160.4009 C.3     1  UNL1        0.0724
      7 C         138.9198  138.3813  163.4752 C.3     1  UNL1        0.0873
      8 C         138.8599  138.7288  164.9332 C.2     1  UNL1        0.2294
      9 O         138.1646  137.9368  166.0005 O.2     1  UNL1       -0.2745
     10 N         139.6174  140.0075  165.1364 N.am    1  UNL1       -0.2586
     11 C         140.1455  140.4502  163.8040 C.3     1  UNL1        0.0986
     12 C         139.8126  140.7186  166.4425 C.ar    1  UNL1        0.0538
     13 C         139.5315  140.0074  167.7330 C.ar    1  UNL1        0.0149
     14 C         139.7267  140.7185  169.0392 C.ar    1  UNL1        0.0024
     15 C         140.2030  142.1408  169.0550 C.ar    1  UNL1        0.0141
     16 C         140.4842  142.8520  167.7645 C.ar    1  UNL1        0.0024
     17 C         140.2890  142.1408  166.4584 C.ar    1  UNL1        0.0149
     18 C         140.3982  142.8519  170.3612 C.2     1  UNL1        0.0729
     19 O         140.4924  144.3487  170.3936 O.co2   1  UNL1       -0.5446
     20 O         140.4992  142.0664  171.6351 O.co2   1  UNL1       -0.5446
     21 C         140.6416  139.5952  158.3764 C.3     1  UNL1        0.1007
     22 N         137.5035  140.4901  156.2747 N.ar    1  UNL1       -0.3282
     23 C         138.3667  140.6807  157.4865 C.ar    1  UNL1        0.0728
     24 C         139.5295  139.7390  157.3801 C.ar    1  UNL1        0.0122
     25 C         139.3850  138.9665  156.1026 C.ar    1  UNL1        0.0106
     26 C         140.2317  137.9002  155.4730 C.ar    1  UNL1       -0.0213
     27 C         139.8264  137.2982  154.1603 C.ar    1  UNL1       -0.0042
     28 C         138.5742  137.7624  153.4771 C.ar    1  UNL1        0.0012
     29 C         137.7276  138.8286  154.1066 C.ar    1  UNL1        0.0172
     30 C         138.1329  139.4306  155.4193 C.ar    1  UNL1        0.0593
     31 C         134.9083  140.5583  156.1768 C.3     1  UNL1        0.0245
     32 C         136.2340  141.2292  155.9714 C.3     1  UNL1        0.0856
     33 C         136.2902  142.6392  155.4627 C.3     1  UNL1        0.0245
     34 C         141.4838  137.4361  156.1563 C.3     1  UNL1        0.0224
     35 C         142.1828  136.4824  157.0792 C.3     1  UNL1        0.0047
     36 C         142.9533  137.5858  156.4168 C.3     1  UNL1        0.0047
@<TRIPOS>UNITY_ATOM_ATTR
19 1
charge -1
@<TRIPOS>BOND
     1    31    32    1
     2    32    33    1
     3    32    22    1
     4    22    23   ar
     5    23    24   ar
     6    24    21    1
     7    21     1    1
     8     1     2    1
     9     2     3    1
    10     3     4    1
    11     4     5    1
    12     5     6    1
    13     4     7    1
    14     7     8    1
    15     8     9    2
    16     8    10   am
    17    10    12    1
    18    12    13   ar
    19    13    14   ar
    20    14    15   ar
    21    15    18    1
    22    18    19   ar
    23    18    20   ar
    24    15    16   ar
    25    16    17   ar
    26    10    11    1
    27    24    25   ar
    28    25    26   ar
    29    26    34    1
    30    34    35    1
    31    35    36    1
    32    26    27   ar
    33    27    28   ar
    34    28    29   ar
    35    29    30   ar
    36    30    22   ar
    37     6     1    1
    38    17    12   ar
    39    30    25   ar
    40    11     4    1
    41    36    34    1
@<TRIPOS>MOLECULE
*****
 36 41 0 0 0
SMALL
GASTEIGER

@<TRIPOS>ATOM
      1 N         142.1096  143.3638  162.9962 N.3     1  UNL1       -0.2689
      2 C         141.0997  142.3124  162.6431 C.3     1  UNL1        0.0724
      3 C         140.5731  142.2189  161.2417 C.3     1  UNL1        0.0195
      4 C         141.0565  143.1766  160.1934 C.3     1  UNL1        0.0300
      5 C         142.0664  144.2280  160.5464 C.3     1  UNL1        0.0195
      6 C         142.5929  144.3216  161.9478 C.3     1  UNL1        0.0724
      7 C         141.4445  144.0601  159.0449 C.3     1  UNL1        0.0873
      8 C         140.6772  143.6126  157.8360 C.2     1  UNL1        0.2294
      9 O         140.7580  144.2187  156.4663 O.2     1  UNL1       -0.2745
     10 N         139.8151  142.4526  158.2375 N.am    1  UNL1       -0.2586
     11 C         140.0495  142.1832  159.6943 C.3     1  UNL1        0.0986
     12 C         138.8824  141.6951  157.3397 C.ar    1  UNL1        0.0538
     13 C         137.4610  142.1475  157.1816 C.ar    1  UNL1        0.0149
     14 C         136.5282  141.3899  156.2838 C.ar    1  UNL1        0.0024
     15 C         137.0168  140.1799  155.5441 C.ar    1  UNL1        0.0141
     16 C         138.4383  139.7275  155.7022 C.ar    1  UNL1        0.0024
     17 C         139.3710  140.4851  156.6000 C.ar    1  UNL1        0.0149
     18 C         136.0841  139.4224  154.6462 C.2     1  UNL1        0.0729
     19 O         135.1565  140.1648  153.7304 O.co2   1  UNL1       -0.5446
     20 O         136.0788  137.9225  154.6642 O.co2   1  UNL1       -0.5446
     21 C         142.6362  143.4574  164.3976 C.3     1  UNL1        0.1007
     22 N         141.0959  141.3413  167.2638 N.ar    1  UNL1       -0.3282
     23 C         141.1619  142.6046  166.4578 C.ar    1  UNL1        0.0728
     24 C         142.2323  142.4372  165.4203 C.ar    1  UNL1        0.0122
     25 C         142.8278  141.0704  165.5851 C.ar    1  UNL1        0.0106
     26 C         143.9188  140.3549  164.8449 C.ar    1  UNL1       -0.0213
     27 C         144.3076  138.9622  165.2440 C.ar    1  UNL1       -0.0042
     28 C         143.6052  138.2849  166.3834 C.ar    1  UNL1        0.0012
     29 C         142.5142  139.0004  167.1235 C.ar    1  UNL1        0.0172
     30 C         142.1255  140.3930  166.7244 C.ar    1  UNL1        0.0593
     31 C         140.1785  141.9673  169.6125 C.3     1  UNL1        0.0245
     32 C         140.1640  141.0732  168.4082 C.3     1  UNL1        0.0856
     33 C         139.2175  139.9110  168.3483 C.3     1  UNL1        0.0245
     34 C         144.6211  141.0322  163.7056 C.3     1  UNL1        0.0224
     35 C         145.6677  141.9836  163.2061 C.3     1  UNL1        0.0047
     36 C         144.7909  141.2541  162.2319 C.3     1  UNL1        0.0047
@<TRIPOS>UNITY_ATOM_ATTR
19 1
charge -1
@<TRIPOS>BOND
     1    31    32    1
     2    32    33    1
     3    32    22    1
     4    22    23   ar
     5    23    24   ar
     6    24    21    1
     7    21     1    1
     8     1     2    1
     9     2     3    1
    10     3     4    1
    11     4     5    1
    12     5     6    1
    13     4     7    1
    14     7     8    1
    15     8     9    2
    16     8    10   am
    17    10    12    1
    18    12    13   ar
    19    13    14   ar
    20    14    15   ar
    21    15    18    1
    22    18    19   ar
    23    18    20   ar
    24    15    16   ar
    25    16    17   ar
    26    10    11    1
    27    24    25   ar
    28    25    26   ar
    29    26    34    1
    30    34    35    1
    31    35    36    1
    32    26    27   ar
    33    27    28   ar
    34    28    29   ar
    35    29    30   ar
    36    30    22   ar
    37     6     1    1
    38    17    12   ar
    39    30    25   ar
    40    11     4    1
    41    36    34    1
