@<TRIPOS>MOLECULE
*****
 35 38 0 0 0
SMALL
GASTEIGER

@<TRIPOS>ATOM
      1 C         142.6228  143.8753  163.5549 C.ar    1  UNL1        0.1377
      2 C         143.4666  143.7792  162.3184 C.ar    1  UNL1        0.1397
      3 N         142.9067  144.2048  160.9935 N.ar    1  UNL1       -0.2027
      4 C         141.5032  144.7266  160.9050 C.ar    1  UNL1        0.2367
      5 N         140.6595  144.8227  162.1415 N.ar    1  UNL1       -0.1828
      6 C         141.2193  144.3971  163.4665 C.ar    1  UNL1        0.2339
      7 C         142.9280  142.1586  167.1200 C.3     1  UNL1        0.1109
      8 N         142.3682  142.5842  165.7951 N.am    1  UNL1       -0.2990
      9 C         143.1827  143.4497  164.8798 C.2     1  UNL1        0.2532
     10 O         144.5570  143.8895  165.2895 O.2     1  UNL1       -0.2699
     11 H         141.4662  142.2956  165.5262 H       1  UNL1        0.1498
     12 N         144.8701  143.2575  162.4068 N.pl3   1  UNL1       -0.3178
     13 H         145.6052  143.8623  162.6580 H       1  UNL1        0.1482
     14 C         145.1537  141.8143  162.1125 C.3     1  UNL1        0.0881
     15 C         144.2620  140.7455  162.6716 C.3     1  UNL1        0.0196
     16 C         143.1664  140.1653  161.8272 C.3     1  UNL1        0.0017
     17 C         142.2747  139.0965  162.3863 C.3     1  UNL1        0.0001
     18 C         142.4785  138.6080  163.7898 C.3     1  UNL1        0.0000
     19 C         141.3174  137.8148  163.2674 C.3     1  UNL1        0.0000
     20 C         141.2174  137.0965  164.5805 C.3     1  UNL1        0.0000
     21 C         142.3785  137.8897  165.1028 C.3     1  UNL1        0.0000
     22 C         143.5741  139.1882  164.6341 C.3     1  UNL1        0.0001
     23 C         144.4658  140.2570  164.0750 C.3     1  UNL1        0.0017
     24 C         140.9433  145.1522  159.5801 C.1     1  UNL1        0.1401
     25 N         140.3835  145.5778  158.2552 N.1     1  UNL1       -0.1876
     26 O         140.3756  144.4932  164.7029 O.3     1  UNL1       -0.4600
     27 C         138.9163  144.8218  164.5914 C.3     1  UNL1        0.2071
     28 C         137.8869  143.7622  164.8521 C.3     1  UNL1        0.0475
     29 C         137.9331  142.4690  164.0936 C.3     1  UNL1        0.0065
     30 C         137.6846  142.4577  162.6144 C.3     1  UNL1        0.0175
     31 C         137.7308  141.1644  161.8560 C.3     1  UNL1        0.0721
     32 N         138.0255  139.8824  162.5767 N.3     1  UNL1       -0.2715
     33 C         138.0717  138.5891  161.8182 C.3     1  UNL1        0.0896
     34 C         138.2741  139.8936  164.0560 C.3     1  UNL1        0.0721
     35 C         138.2278  141.1869  164.8144 C.3     1  UNL1        0.0175
@<TRIPOS>BOND
     1     7     8    1
     2     8     9   am
     3     9    10    2
     4     9     1    1
     5     1     2   ar
     6     2    12    1
     7    12    14    1
     8    14    15    1
     9    15    16    1
    10    16    17    1
    11    17    18    1
    12    18    19    1
    13    19    20    1
    14    20    21    1
    15    18    22    1
    16    22    23    1
    17     2     3   ar
    18     3     4   ar
    19     4    24    1
    20    24    25    3
    21     4     5   ar
    22     5     6   ar
    23     6    26    1
    24    26    27    1
    25    27    28    1
    26    28    29    1
    27    29    30    1
    28    30    31    1
    29    31    32    1
    30    32    33    1
    31    32    34    1
    32    34    35    1
    33     6     1   ar
    34    35    29    1
    35    23    15    1
    36    21    18    1
    37     8    11    1
    38    12    13    1
@<TRIPOS>MOLECULE
*****
 35 38 0 0 0
SMALL
GASTEIGER

@<TRIPOS>ATOM
      1 C         143.1114  138.6465  164.4706 C.ar    1  UNL1        0.1377
      2 C         141.9562  137.8929  163.8809 C.ar    1  UNL1        0.1397
      3 N         141.8917  137.6570  162.4010 N.ar    1  UNL1       -0.2027
      4 C         142.9824  138.1746  161.5107 C.ar    1  UNL1        0.2367
      5 N         144.1375  138.9281  162.1004 N.ar    1  UNL1       -0.1828
      6 C         144.2021  139.1641  163.5804 C.ar    1  UNL1        0.2339
      7 C         142.5027  140.2743  168.0384 C.3     1  UNL1        0.1109
      8 N         142.4382  140.0384  166.5586 N.am    1  UNL1       -0.2990
      9 C         143.1759  138.8824  165.9505 C.2     1  UNL1        0.2532
     10 O         143.9780  137.9624  166.8224 O.2     1  UNL1       -0.2699
     11 H         141.9117  140.6422  165.9863 H       1  UNL1        0.1498
     12 N         140.8655  137.3753  164.7711 N.pl3   1  UNL1       -0.3178
     13 H         141.0892  136.8128  165.5475 H       1  UNL1        0.1482
     14 C         139.4341  137.7146  164.4784 C.3     1  UNL1        0.0881
     15 C         139.0318  139.1428  164.2579 C.3     1  UNL1        0.0196
     16 C         139.1717  140.1413  165.3684 C.3     1  UNL1        0.0017
     17 C         138.7694  141.5695  165.1479 C.3     1  UNL1        0.0001
     18 C         138.2273  141.9990  163.8170 C.3     1  UNL1        0.0000
     19 C         138.2213  143.2412  164.6579 C.3     1  UNL1        0.0000
     20 C         137.6584  144.0188  163.5052 C.3     1  UNL1        0.0000
     21 C         137.6644  142.7766  162.6643 C.3     1  UNL1        0.0000
     22 C         138.0874  141.0005  162.7065 C.3     1  UNL1        0.0001
     23 C         138.4897  139.5723  162.9270 C.3     1  UNL1        0.0017
     24 C         142.9179  137.9386  160.0308 C.1     1  UNL1        0.1401
     25 N         142.8534  137.7026  158.5509 N.1     1  UNL1       -0.1876
     26 O         145.3572  139.9176  164.1700 O.3     1  UNL1       -0.4600
     27 C         145.4596  141.4021  163.9803 C.3     1  UNL1        0.2071
     28 C         144.5625  142.3209  164.7557 C.3     1  UNL1        0.0475
     29 C         143.5140  143.1228  164.0433 C.3     1  UNL1        0.0065
     30 C         143.4977  144.6173  164.1704 C.3     1  UNL1        0.0175
     31 C         142.4491  145.4192  163.4579 C.3     1  UNL1        0.0721
     32 N         141.4169  144.7266  162.6184 N.3     1  UNL1       -0.2715
     33 C         140.3684  145.5285  161.9060 C.3     1  UNL1        0.0896
     34 C         141.4332  143.2320  162.4913 C.3     1  UNL1        0.0721
     35 C         142.4818  142.4301  163.2037 C.3     1  UNL1        0.0175
@<TRIPOS>BOND
     1     7     8    1
     2     8     9   am
     3     9    10    2
     4     9     1    1
     5     1     2   ar
     6     2    12    1
     7    12    14    1
     8    14    15    1
     9    15    16    1
    10    16    17    1
    11    17    18    1
    12    18    19    1
    13    19    20    1
    14    20    21    1
    15    18    22    1
    16    22    23    1
    17     2     3   ar
    18     3     4   ar
    19     4    24    1
    20    24    25    3
    21     4     5   ar
    22     5     6   ar
    23     6    26    1
    24    26    27    1
    25    27    28    1
    26    28    29    1
    27    29    30    1
    28    30    31    1
    29    31    32    1
    30    32    33    1
    31    32    34    1
    32    34    35    1
    33     6     1   ar
    34    35    29    1
    35    23    15    1
    36    21    18    1
    37     8    11    1
    38    12    13    1
@<TRIPOS>MOLECULE
*****
 35 38 0 0 0
SMALL
GASTEIGER

@<TRIPOS>ATOM
      1 C         144.4734  143.0250  163.9936 C.ar    1  UNL1        0.1377
      2 C         143.9592  144.1029  163.0860 C.ar    1  UNL1        0.1397
      3 N         144.0348  143.9298  161.5979 N.ar    1  UNL1       -0.2027
      4 C         144.6247  142.6787  161.0175 C.ar    1  UNL1        0.2367
      5 N         145.1389  141.6008  161.9250 N.ar    1  UNL1       -0.1828
      6 C         145.0633  141.7739  163.4131 C.ar    1  UNL1        0.2339
      7 C         143.4252  142.4860  167.7831 C.3     1  UNL1        0.1109
      8 N         143.5008  142.3128  166.2951 N.am    1  UNL1       -0.2990
      9 C         144.3978  143.1981  165.4816 C.2     1  UNL1        0.2532
     10 O         145.2192  144.2566  166.1562 O.2     1  UNL1       -0.2699
     11 H         142.9617  141.6181  165.8523 H       1  UNL1        0.1498
     12 N         143.3694  145.3540  163.6664 N.pl3   1  UNL1       -0.3178
     13 H         143.9593  146.0573  164.0221 H       1  UNL1        0.1482
     14 C         141.8807  145.5334  163.7051 C.3     1  UNL1        0.0881
     15 C         140.9815  144.3335  163.7495 C.3     1  UNL1        0.0196
     16 C         140.7662  143.6051  165.0428 C.3     1  UNL1        0.0017
     17 C         139.8671  142.4052  165.0872 C.3     1  UNL1        0.0001
     18 C         139.1832  141.9339  163.8382 C.3     1  UNL1        0.0000
     19 C         138.7387  140.9805  164.9075 C.3     1  UNL1        0.0000
     20 C         137.9116  140.2370  163.9009 C.3     1  UNL1        0.0000
     21 C         138.3562  141.1904  162.8315 C.3     1  UNL1        0.0000
     22 C         139.3986  142.6623  162.5448 C.3     1  UNL1        0.0001
     23 C         140.2977  143.8622  162.5004 C.3     1  UNL1        0.0017
     24 C         144.7003  142.5056  159.5294 C.1     1  UNL1        0.1401
     25 N         144.7760  142.3324  158.0413 N.1     1  UNL1       -0.1876
     26 O         145.5775  140.6960  164.3206 O.3     1  UNL1       -0.4600
     27 C         144.8321  139.4002  164.4436 C.3     1  UNL1        0.2071
     28 C         143.3815  139.4028  164.8257 C.3     1  UNL1        0.0475
     29 C         142.3366  139.0596  163.8056 C.3     1  UNL1        0.0065
     30 C         142.1949  139.8939  162.5672 C.3     1  UNL1        0.0175
     31 C         141.1500  139.5507  161.5472 C.3     1  UNL1        0.0721
     32 N         140.2470  138.3731  161.7655 N.3     1  UNL1       -0.2715
     33 C         139.2021  138.0299  160.7455 C.3     1  UNL1        0.0896
     34 C         140.3887  137.5387  163.0040 C.3     1  UNL1        0.0721
     35 C         141.4335  137.8819  164.0240 C.3     1  UNL1        0.0175
@<TRIPOS>BOND
     1     7     8    1
     2     8     9   am
     3     9    10    2
     4     9     1    1
     5     1     2   ar
     6     2    12    1
     7    12    14    1
     8    14    15    1
     9    15    16    1
    10    16    17    1
    11    17    18    1
    12    18    19    1
    13    19    20    1
    14    20    21    1
    15    18    22    1
    16    22    23    1
    17     2     3   ar
    18     3     4   ar
    19     4    24    1
    20    24    25    3
    21     4     5   ar
    22     5     6   ar
    23     6    26    1
    24    26    27    1
    25    27    28    1
    26    28    29    1
    27    29    30    1
    28    30    31    1
    29    31    32    1
    30    32    33    1
    31    32    34    1
    32    34    35    1
    33     6     1   ar
    34    35    29    1
    35    23    15    1
    36    21    18    1
    37     8    11    1
    38    12    13    1
@<TRIPOS>MOLECULE
*****
 35 38 0 0 0
SMALL
GASTEIGER

@<TRIPOS>ATOM
      1 C         143.0691  138.5303  164.4537 C.ar    1  UNL1        0.1377
      2 C         144.1844  139.0663  163.6058 C.ar    1  UNL1        0.1397
      3 N         144.1423  138.8964  162.1161 N.ar    1  UNL1       -0.2027
      4 C         142.9849  138.1904  161.4742 C.ar    1  UNL1        0.2367
      5 N         141.8697  137.6544  162.3220 N.ar    1  UNL1       -0.1828
      6 C         141.9117  137.8243  163.8118 C.ar    1  UNL1        0.2339
      7 C         142.1195  139.7112  168.1216 C.3     1  UNL1        0.1109
      8 N         142.0774  139.5412  166.6319 N.am    1  UNL1       -0.2990
      9 C         143.1112  138.7002  165.9434 C.2     1  UNL1        0.2532
     10 O         144.1871  138.0291  166.7447 O.2     1  UNL1       -0.2699
     11 H         141.3712  139.9817  166.1060 H       1  UNL1        0.1498
     12 N         145.3418  139.7723  164.2478 N.pl3   1  UNL1       -0.3178
     13 H         145.8710  139.3186  164.9430 H       1  UNL1        0.1482
     14 C         145.6928  141.1697  163.8305 C.3     1  UNL1        0.0881
     15 C         144.6057  142.1672  163.5600 C.3     1  UNL1        0.0196
     16 C         144.2702  142.5465  162.1482 C.3     1  UNL1        0.0017
     17 C         143.1831  143.5440  161.8777 C.3     1  UNL1        0.0001
     18 C         142.4314  144.1621  163.0191 C.3     1  UNL1        0.0000
     19 C         141.8326  144.7700  161.7853 C.3     1  UNL1        0.0000
     20 C         140.8939  145.5728  162.6365 C.3     1  UNL1        0.0000
     21 C         141.4927  144.9649  163.8702 C.3     1  UNL1        0.0000
     22 C         142.7668  143.7827  164.4310 C.3     1  UNL1        0.0001
     23 C         143.8540  142.7852  164.7015 C.3     1  UNL1        0.0017
     24 C         142.9428  138.0205  159.9845 C.1     1  UNL1        0.1401
     25 N         142.9007  137.8505  158.4947 N.1     1  UNL1       -0.1876
     26 O         140.7965  137.2882  164.6596 O.3     1  UNL1       -0.4600
     27 C         139.3890  137.7524  164.4285 C.3     1  UNL1        0.2071
     28 C         138.7955  138.8138  165.3068 C.3     1  UNL1        0.0475
     29 C         138.5200  140.1796  164.7511 C.3     1  UNL1        0.0065
     30 C         137.7079  140.3300  163.4990 C.3     1  UNL1        0.0175
     31 C         137.4324  141.6958  162.9434 C.3     1  UNL1        0.0721
     32 N         137.9690  142.9111  163.6398 N.3     1  UNL1       -0.2715
     33 C         137.6935  144.2769  163.0841 C.3     1  UNL1        0.0896
     34 C         138.7812  142.7607  164.8920 C.3     1  UNL1        0.0721
     35 C         139.0567  141.3949  165.4476 C.3     1  UNL1        0.0175
@<TRIPOS>BOND
     1     7     8    1
     2     8     9   am
     3     9    10    2
     4     9     1    1
     5     1     2   ar
     6     2    12    1
     7    12    14    1
     8    14    15    1
     9    15    16    1
    10    16    17    1
    11    17    18    1
    12    18    19    1
    13    19    20    1
    14    20    21    1
    15    18    22    1
    16    22    23    1
    17     2     3   ar
    18     3     4   ar
    19     4    24    1
    20    24    25    3
    21     4     5   ar
    22     5     6   ar
    23     6    26    1
    24    26    27    1
    25    27    28    1
    26    28    29    1
    27    29    30    1
    28    30    31    1
    29    31    32    1
    30    32    33    1
    31    32    34    1
    32    34    35    1
    33     6     1   ar
    34    35    29    1
    35    23    15    1
    36    21    18    1
    37     8    11    1
    38    12    13    1
@<TRIPOS>MOLECULE
*****
 35 38 0 0 0
SMALL
GASTEIGER

@<TRIPOS>ATOM
      1 C         140.5735  144.1841  161.8687 C.ar    1  UNL1        0.1377
      2 C         140.1786  143.4613  160.6151 C.ar    1  UNL1        0.1397
      3 N         141.2275  143.0473  159.6260 N.ar    1  UNL1       -0.2027
      4 C         142.6714  143.3561  159.8905 C.ar    1  UNL1        0.2367
      5 N         143.0663  144.0789  161.1441 N.ar    1  UNL1       -0.1828
      6 C         142.0174  144.4929  162.1332 C.ar    1  UNL1        0.2339
      7 C         138.7299  144.8604  165.3175 C.3     1  UNL1        0.1109
      8 N         139.7788  144.4464  164.3284 N.am    1  UNL1       -0.2990
      9 C         139.5246  144.5981  162.8578 C.2     1  UNL1        0.2532
     10 O         138.2214  145.1638  162.3764 O.2     1  UNL1       -0.2699
     11 H         140.6341  144.0751  164.6443 H       1  UNL1        0.1498
     12 N         138.7348  143.1525  160.3506 N.pl3   1  UNL1       -0.3178
     13 H         138.1016  143.8826  160.1627 H       1  UNL1        0.1482
     14 C         138.2556  141.7313  160.3723 C.3     1  UNL1        0.0881
     15 C         138.3342  140.9326  161.6395 C.3     1  UNL1        0.0196
     16 C         138.8598  139.5280  161.6094 C.3     1  UNL1        0.0017
     17 C         138.9384  138.7293  162.8767 C.3     1  UNL1        0.0001
     18 C         138.4915  139.3352  164.1740 C.3     1  UNL1        0.0000
     19 C         138.9441  137.9496  164.5282 C.3     1  UNL1        0.0000
     20 C         138.6027  138.2056  165.9662 C.3     1  UNL1        0.0000
     21 C         138.1500  139.5912  165.6121 C.3     1  UNL1        0.0000
     22 C         137.9659  140.7397  164.2041 C.3     1  UNL1        0.0001
     23 C         137.8873  141.5384  162.9369 C.3     1  UNL1        0.0017
     24 C         143.7203  142.9421  158.9014 C.1     1  UNL1        0.1401
     25 N         144.7693  142.5281  157.9123 N.1     1  UNL1       -0.1876
     26 O         142.4123  145.2157  163.3868 O.3     1  UNL1       -0.4600
     27 C         143.7517  144.9579  164.0109 C.3     1  UNL1        0.2071
     28 C         143.9441  143.7739  164.9116 C.3     1  UNL1        0.0475
     29 C         143.6488  142.3924  164.4076 C.3     1  UNL1        0.0065
     30 C         142.2992  141.7811  164.6419 C.3     1  UNL1        0.0175
     31 C         142.0039  140.3995  164.1379 C.3     1  UNL1        0.0721
     32 N         143.0582  139.6292  163.3995 N.3     1  UNL1       -0.2715
     33 C         142.7629  138.2476  162.8955 C.3     1  UNL1        0.0896
     34 C         144.4078  140.2405  163.1652 C.3     1  UNL1        0.0721
     35 C         144.7031  141.6221  163.6692 C.3     1  UNL1        0.0175
@<TRIPOS>BOND
     1     7     8    1
     2     8     9   am
     3     9    10    2
     4     9     1    1
     5     1     2   ar
     6     2    12    1
     7    12    14    1
     8    14    15    1
     9    15    16    1
    10    16    17    1
    11    17    18    1
    12    18    19    1
    13    19    20    1
    14    20    21    1
    15    18    22    1
    16    22    23    1
    17     2     3   ar
    18     3     4   ar
    19     4    24    1
    20    24    25    3
    21     4     5   ar
    22     5     6   ar
    23     6    26    1
    24    26    27    1
    25    27    28    1
    26    28    29    1
    27    29    30    1
    28    30    31    1
    29    31    32    1
    30    32    33    1
    31    32    34    1
    32    34    35    1
    33     6     1   ar
    34    35    29    1
    35    23    15    1
    36    21    18    1
    37     8    11    1
    38    12    13    1
@<TRIPOS>MOLECULE
*****
 35 38 0 0 0
SMALL
GASTEIGER

@<TRIPOS>ATOM
      1 C         142.7518  138.8070  162.4895 C.ar    1  UNL1        0.1377
      2 C         143.8547  139.5597  163.1730 C.ar    1  UNL1        0.1397
      3 N         143.9143  139.6067  164.6710 N.ar    1  UNL1       -0.2027
      4 C         142.8710  138.9010  165.4857 C.ar    1  UNL1        0.2367
      5 N         141.7682  138.1483  164.8023 N.ar    1  UNL1       -0.1828
      6 C         141.7085  138.1013  163.3041 C.ar    1  UNL1        0.2339
      7 C         141.3131  138.8378  158.7910 C.3     1  UNL1        0.1109
      8 N         141.3727  138.8848  160.2890 N.am    1  UNL1       -0.2990
      9 C         142.6922  138.7599  160.9915 C.2     1  UNL1        0.2532
     10 O         143.9521  138.5880  160.1958 O.2     1  UNL1       -0.2699
     11 H         140.5457  138.9977  160.8113 H       1  UNL1        0.1498
     12 N         144.8980  140.2653  162.3584 N.pl3   1  UNL1       -0.3178
     13 H         145.4433  139.7602  161.7128 H       1  UNL1        0.1482
     14 C         145.1104  141.7405  162.5273 C.3     1  UNL1        0.0881
     15 C         143.9520  142.6848  162.3978 C.3     1  UNL1        0.0196
     16 C         143.5787  143.5756  163.5454 C.3     1  UNL1        0.0017
     17 C         142.4204  144.5198  163.4159 C.3     1  UNL1        0.0001
     18 C         141.6354  144.5732  162.1389 C.3     1  UNL1        0.0000
     19 C         140.9844  145.5828  163.0373 C.3     1  UNL1        0.0000
     20 C         139.9972  145.9085  161.9558 C.3     1  UNL1        0.0000
     21 C         140.6482  144.8989  161.0574 C.3     1  UNL1        0.0000
     22 C         142.0087  143.6823  160.9913 C.3     1  UNL1        0.0001
     23 C         143.1671  142.7381  161.1208 C.3     1  UNL1        0.0017
     24 C         142.9306  138.9480  166.9837 C.1     1  UNL1        0.1401
     25 N         142.9902  138.9951  168.4818 N.1     1  UNL1       -0.1876
     26 O         140.6056  137.3486  162.6207 O.3     1  UNL1       -0.4600
     27 C         139.1799  137.5715  163.0299 C.3     1  UNL1        0.2071
     28 C         138.3508  138.6055  162.3272 C.3     1  UNL1        0.0475
     29 C         138.2404  139.9900  162.8937 C.3     1  UNL1        0.0065
     30 C         138.4872  140.2245  164.3545 C.3     1  UNL1        0.0175
     31 C         138.3767  141.6090  164.9211 C.3     1  UNL1        0.0721
     32 N         138.0195  142.7590  164.0267 N.3     1  UNL1       -0.2715
     33 C         137.9091  144.1436  164.5932 C.3     1  UNL1        0.0896
     34 C         137.7727  142.5246  162.5658 C.3     1  UNL1        0.0721
     35 C         137.8832  141.1401  161.9993 C.3     1  UNL1        0.0175
@<TRIPOS>BOND
     1     7     8    1
     2     8     9   am
     3     9    10    2
     4     9     1    1
     5     1     2   ar
     6     2    12    1
     7    12    14    1
     8    14    15    1
     9    15    16    1
    10    16    17    1
    11    17    18    1
    12    18    19    1
    13    19    20    1
    14    20    21    1
    15    18    22    1
    16    22    23    1
    17     2     3   ar
    18     3     4   ar
    19     4    24    1
    20    24    25    3
    21     4     5   ar
    22     5     6   ar
    23     6    26    1
    24    26    27    1
    25    27    28    1
    26    28    29    1
    27    29    30    1
    28    30    31    1
    29    31    32    1
    30    32    33    1
    31    32    34    1
    32    34    35    1
    33     6     1   ar
    34    35    29    1
    35    23    15    1
    36    21    18    1
    37     8    11    1
    38    12    13    1
@<TRIPOS>MOLECULE
*****
 35 38 0 0 0
SMALL
GASTEIGER

@<TRIPOS>ATOM
      1 C         141.8985  144.4159  162.5507 C.ar    1  UNL1        0.1377
      2 C         140.5300  145.0235  162.4601 C.ar    1  UNL1        0.1397
      3 N         139.9961  145.4747  161.1330 N.ar    1  UNL1       -0.2027
      4 C         140.8307  145.3185  159.8964 C.ar    1  UNL1        0.2367
      5 N         142.1992  144.7110  159.9870 N.ar    1  UNL1       -0.1828
      6 C         142.7331  144.2597  161.3142 C.ar    1  UNL1        0.2339
      7 C         144.4344  143.6128  165.4959 C.3     1  UNL1        0.1109
      8 N         143.9006  144.0641  164.1688 N.am    1  UNL1       -0.2990
      9 C         142.4323  143.9647  163.8779 C.2     1  UNL1        0.2532
     10 O         141.4981  143.4140  164.9142 O.2     1  UNL1       -0.2699
     11 H         144.5138  144.4255  163.4886 H       1  UNL1        0.1498
     12 N         139.6954  145.1797  163.6967 N.pl3   1  UNL1       -0.3178
     13 H         140.0000  145.7677  164.4251 H       1  UNL1        0.1482
     14 C         138.3966  144.4400  163.8233 C.3     1  UNL1        0.0881
     15 C         138.3111  142.9992  163.4149 C.3     1  UNL1        0.0196
     16 C         138.5981  141.9181  164.4143 C.3     1  UNL1        0.0017
     17 C         138.5126  140.4773  164.0060 C.3     1  UNL1        0.0001
     18 C         138.1401  140.1176  162.5982 C.3     1  UNL1        0.0000
     19 C         138.3489  138.8042  163.2923 C.3     1  UNL1        0.0000
     20 C         138.0192  138.0799  162.0207 C.3     1  UNL1        0.0000
     21 C         137.8104  139.3933  161.3267 C.3     1  UNL1        0.0000
     22 C         137.8531  141.1987  161.5988 C.3     1  UNL1        0.0001
     23 C         137.9386  142.6395  162.0072 C.3     1  UNL1        0.0017
     24 C         140.2968  145.7698  158.5693 C.1     1  UNL1        0.1401
     25 N         139.7629  146.2211  157.2421 N.1     1  UNL1       -0.1876
     26 O         144.1015  143.6522  161.4048 O.3     1  UNL1       -0.4600
     27 C         144.3638  142.3020  160.8064 C.3     1  UNL1        0.2071
     28 C         143.4283  141.1632  161.0860 C.3     1  UNL1        0.0475
     29 C         143.3962  140.5360  162.4481 C.3     1  UNL1        0.0065
     30 C         144.6787  140.2321  163.1643 C.3     1  UNL1        0.0175
     31 C         144.6466  139.6049  164.5265 C.3     1  UNL1        0.0721
     32 N         143.3321  139.2816  165.1725 N.3     1  UNL1       -0.2715
     33 C         143.3000  138.6544  166.5347 C.3     1  UNL1        0.0896
     34 C         142.0495  139.5854  164.4564 C.3     1  UNL1        0.0721
     35 C         142.0816  140.2127  163.0942 C.3     1  UNL1        0.0175
@<TRIPOS>BOND
     1     7     8    1
     2     8     9   am
     3     9    10    2
     4     9     1    1
     5     1     2   ar
     6     2    12    1
     7    12    14    1
     8    14    15    1
     9    15    16    1
    10    16    17    1
    11    17    18    1
    12    18    19    1
    13    19    20    1
    14    20    21    1
    15    18    22    1
    16    22    23    1
    17     2     3   ar
    18     3     4   ar
    19     4    24    1
    20    24    25    3
    21     4     5   ar
    22     5     6   ar
    23     6    26    1
    24    26    27    1
    25    27    28    1
    26    28    29    1
    27    29    30    1
    28    30    31    1
    29    31    32    1
    30    32    33    1
    31    32    34    1
    32    34    35    1
    33     6     1   ar
    34    35    29    1
    35    23    15    1
    36    21    18    1
    37     8    11    1
    38    12    13    1
@<TRIPOS>MOLECULE
*****
 35 38 0 0 0
SMALL
GASTEIGER

@<TRIPOS>ATOM
      1 C         141.0656  144.0599  161.2063 C.ar    1  UNL1        0.1377
      2 C         141.8021  144.6625  162.3659 C.ar    1  UNL1        0.1397
      3 N         141.0690  144.9848  163.6342 N.ar    1  UNL1       -0.2027
      4 C         139.5995  144.7046  163.7430 C.ar    1  UNL1        0.2367
      5 N         138.8630  144.1021  162.5835 N.ar    1  UNL1       -0.1828
      6 C         139.5960  143.7797  161.3151 C.ar    1  UNL1        0.2339
      7 C         142.6407  141.9924  158.2072 C.3     1  UNL1        0.1109
      8 N         141.9077  142.3147  159.4755 N.am    1  UNL1       -0.2990
      9 C         141.7987  143.7376  159.9380 C.2     1  UNL1        0.2532
     10 O         142.4228  144.8380  159.1320 O.2     1  UNL1       -0.2699
     11 H         141.4980  141.5925  160.0045 H       1  UNL1        0.1498
     12 N         143.2717  144.9427  162.2570 N.pl3   1  UNL1       -0.3178
     13 H         143.5851  145.7577  161.8023 H       1  UNL1        0.1482
     14 C         144.2638  143.9811  162.8410 C.3     1  UNL1        0.0881
     15 C         143.8028  142.6527  163.3633 C.3     1  UNL1        0.0196
     16 C         143.5481  142.4709  164.8302 C.3     1  UNL1        0.0017
     17 C         143.0871  141.1424  165.3525 C.3     1  UNL1        0.0001
     18 C         142.8808  139.9958  164.4077 C.3     1  UNL1        0.0000
     19 C         142.5351  139.4503  165.7617 C.3     1  UNL1        0.0000
     20 C         142.2289  138.1170  165.1463 C.3     1  UNL1        0.0000
     21 C         142.5746  138.6625  163.7924 C.3     1  UNL1        0.0000
     22 C         143.1355  140.1776  162.9408 C.3     1  UNL1        0.0001
     23 C         143.5965  141.5060  162.4185 C.3     1  UNL1        0.0017
     24 C         138.8664  145.0270  165.0113 C.1     1  UNL1        0.1401
     25 N         138.1332  145.3493  166.2797 N.1     1  UNL1       -0.1876
     26 O         138.8595  143.1772  160.1556 O.3     1  UNL1       -0.4600
     27 C         138.4193  141.7442  160.2096 C.3     1  UNL1        0.2071
     28 C         139.3936  140.6747  160.6059 C.3     1  UNL1        0.0475
     29 C         139.1912  139.9108  161.8808 C.3     1  UNL1        0.0065
     30 C         139.0083  138.4225  161.8425 C.3     1  UNL1        0.0175
     31 C         138.8059  137.6586  163.1174 C.3     1  UNL1        0.0721
     32 N         138.7863  138.3830  164.4307 N.3     1  UNL1       -0.2715
     33 C         138.5839  137.6191  165.7057 C.3     1  UNL1        0.0896
     34 C         138.9692  139.8714  164.4691 C.3     1  UNL1        0.0721
     35 C         139.1716  140.6353  163.1942 C.3     1  UNL1        0.0175
@<TRIPOS>BOND
     1     7     8    1
     2     8     9   am
     3     9    10    2
     4     9     1    1
     5     1     2   ar
     6     2    12    1
     7    12    14    1
     8    14    15    1
     9    15    16    1
    10    16    17    1
    11    17    18    1
    12    18    19    1
    13    19    20    1
    14    20    21    1
    15    18    22    1
    16    22    23    1
    17     2     3   ar
    18     3     4   ar
    19     4    24    1
    20    24    25    3
    21     4     5   ar
    22     5     6   ar
    23     6    26    1
    24    26    27    1
    25    27    28    1
    26    28    29    1
    27    29    30    1
    28    30    31    1
    29    31    32    1
    30    32    33    1
    31    32    34    1
    32    34    35    1
    33     6     1   ar
    34    35    29    1
    35    23    15    1
    36    21    18    1
    37     8    11    1
    38    12    13    1
@<TRIPOS>MOLECULE
*****
 35 38 0 0 0
SMALL
GASTEIGER

@<TRIPOS>ATOM
      1 C         141.0065  138.6427  162.6983 C.ar    1  UNL1        0.1377
      2 C         139.5251  138.7101  162.4723 C.ar    1  UNL1        0.1397
      3 N         138.5805  138.4408  163.6059 N.ar    1  UNL1       -0.2027
      4 C         139.1172  138.1041  164.9656 C.ar    1  UNL1        0.2367
      5 N         140.5985  138.0367  165.1916 N.ar    1  UNL1       -0.1828
      6 C         141.5432  138.3060  164.0580 C.ar    1  UNL1        0.2339
      7 C         143.9726  140.2147  160.5815 C.3     1  UNL1        0.1109
      8 N         143.0280  139.9454  161.7151 N.am    1  UNL1       -0.2990
      9 C         141.9512  138.9120  161.5647 C.2     1  UNL1        0.2532
     10 O         141.8191  138.1479  160.2807 O.2     1  UNL1       -0.2699
     11 H         143.1147  140.4470  162.5578 H       1  UNL1        0.1498
     12 N         138.9885  139.0468  161.1127 N.pl3   1  UNL1       -0.3178
     13 H         138.8846  138.3398  160.4355 H       1  UNL1        0.1482
     14 C         138.6101  140.4608  160.7848 C.3     1  UNL1        0.0881
     15 C         138.6367  141.5117  161.8547 C.3     1  UNL1        0.0196
     16 C         137.4454  141.7056  162.7453 C.3     1  UNL1        0.0017
     17 C         137.4720  142.7566  163.8153 C.3     1  UNL1        0.0001
     18 C         138.6899  143.6135  163.9947 C.3     1  UNL1        0.0000
     19 C         137.7251  144.0860  165.0416 C.3     1  UNL1        0.0000
     20 C         138.7276  145.0998  165.5079 C.3     1  UNL1        0.0000
     21 C         139.6924  144.6274  164.4609 C.3     1  UNL1        0.0000
     22 C         139.8812  143.4196  163.1041 C.3     1  UNL1        0.0001
     23 C         139.8546  142.3687  162.0341 C.3     1  UNL1        0.0017
     24 C         138.1725  137.8348  166.0992 C.1     1  UNL1        0.1401
     25 N         137.2279  137.5656  167.2328 N.1     1  UNL1       -0.1876
     26 O         143.0245  138.2386  164.2840 O.3     1  UNL1       -0.4600
     27 C         143.6881  139.2191  165.2050 C.3     1  UNL1        0.2071
     28 C         143.1497  140.6137  165.3296 C.3     1  UNL1        0.0475
     29 C         142.3282  140.9965  166.5249 C.3     1  UNL1        0.0065
     30 C         141.3742  142.1509  166.4407 C.3     1  UNL1        0.0175
     31 C         140.5526  142.5336  167.6359 C.3     1  UNL1        0.0721
     32 N         140.6851  141.7620  168.9153 N.3     1  UNL1       -0.2715
     33 C         139.8636  142.1448  170.1105 C.3     1  UNL1        0.0896
     34 C         141.6392  140.6075  168.9996 C.3     1  UNL1        0.0721
     35 C         142.4607  140.2247  167.8043 C.3     1  UNL1        0.0175
@<TRIPOS>BOND
     1     7     8    1
     2     8     9   am
     3     9    10    2
     4     9     1    1
     5     1     2   ar
     6     2    12    1
     7    12    14    1
     8    14    15    1
     9    15    16    1
    10    16    17    1
    11    17    18    1
    12    18    19    1
    13    19    20    1
    14    20    21    1
    15    18    22    1
    16    22    23    1
    17     2     3   ar
    18     3     4   ar
    19     4    24    1
    20    24    25    3
    21     4     5   ar
    22     5     6   ar
    23     6    26    1
    24    26    27    1
    25    27    28    1
    26    28    29    1
    27    29    30    1
    28    30    31    1
    29    31    32    1
    30    32    33    1
    31    32    34    1
    32    34    35    1
    33     6     1   ar
    34    35    29    1
    35    23    15    1
    36    21    18    1
    37     8    11    1
    38    12    13    1
