@<TRIPOS>MOLECULE
*****
 30 34 0 0 0
SMALL
GASTEIGER

@<TRIPOS>ATOM
      1 C         140.3683  146.0504  157.6963 C.3     1  UNL1        0.0950
      2 C         140.8849  145.2660  158.8659 C.ar    1  UNL1        0.2063
      3 N         142.2103  144.5679  158.9431 N.ar    1  UNL1       -0.2072
      4 C         142.3113  143.9124  160.2884 C.ar    1  UNL1        0.1744
      5 C         143.3902  143.0866  160.9241 C.ar    1  UNL1        0.2816
      6 O         144.6532  142.7938  160.1698 O.2     1  UNL1       -0.2652
      7 N         143.2061  142.5536  162.3141 N.ar    1  UNL1       -0.2951
      8 C         141.9430  142.8465  163.0684 C.ar    1  UNL1        0.0773
      9 C         141.7589  142.3136  164.4584 C.ar    1  UNL1        0.0890
     10 CL        142.8377  141.4878  165.0941 Cl      1  UNL1       -0.0794
     11 C         140.4958  142.6064  165.2127 C.ar    1  UNL1        0.0878
     12 C         139.4170  143.4322  164.5771 C.ar    1  UNL1        0.1543
     13 F         138.1539  143.7250  165.3314 F       1  UNL1       -0.2028
     14 C         139.6011  143.9652  163.1870 C.ar    1  UNL1        0.0355
     15 C         140.8641  143.6723  162.4327 C.ar    1  UNL1        0.0553
     16 C         141.0483  144.2052  161.0427 C.ar    1  UNL1        0.1705
     17 O         140.1667  145.0418  160.1635 O.2     1  UNL1       -0.4382
     18 N         140.3117  142.0735  166.6027 N.pl3   1  UNL1       -0.3050
     19 C         139.8435  140.6949  166.9636 C.3     1  UNL1        0.0910
     20 C         139.8058  140.5950  168.4598 C.3     1  UNL1        0.0244
     21 C         140.2507  141.9119  169.0236 C.3     1  UNL1        0.0357
     22 C         140.5633  142.8257  167.8759 C.3     1  UNL1        0.0922
     23 C         140.3631  142.2549  170.4795 C.3     1  UNL1        0.0525
     24 C         141.4355  141.6246  171.3178 C.3     1  UNL1        0.0169
     25 N         139.4032  143.2281  171.0971 N.3     1  UNL1       -0.3221
     26 H         139.6242  143.3423  172.0863 H       1  UNL1        0.1188
     27 H         138.4513  142.8748  171.0000 H       1  UNL1        0.1188
     28 C         144.2849  141.7279  162.9498 C.3     1  UNL1        0.0886
     29 C         145.5901  141.6384  163.6836 C.3     1  UNL1        0.0246
     30 C         144.8485  140.3872  163.3170 C.3     1  UNL1        0.0246
@<TRIPOS>BOND
     1     1     2    1
     2     2     3   ar
     3     3     4   ar
     4     4     5   ar
     5     5     6    2
     6     5     7   ar
     7     7    28    1
     8    28    29    1
     9    29    30    1
    10     7     8   ar
    11     8     9   ar
    12     9    10    1
    13     9    11   ar
    14    11    18    1
    15    18    19    1
    16    19    20    1
    17    21    20    1
    18    21    23    1
    19    23    24    1
    20    23    25    1
    21    21    22    1
    22    11    12   ar
    23    12    13    1
    24    12    14   ar
    25    14    15   ar
    26    15    16   ar
    27    16    17   ar
    28    17     2   ar
    29    16     4   ar
    30    30    28    1
    31    15     8   ar
    32    22    18    1
    33    25    26    1
    34    25    27    1
@<TRIPOS>MOLECULE
*****
 30 34 0 0 0
SMALL
GASTEIGER

@<TRIPOS>ATOM
      1 C         139.9807  138.0360  157.2138 C.3     1  UNL1        0.0950
      2 C         139.8532  138.8519  158.4661 C.ar    1  UNL1        0.2063
      3 N         139.2600  140.2259  158.5666 N.ar    1  UNL1       -0.2072
      4 C         139.3366  140.6602  160.0003 C.ar    1  UNL1        0.1744
      5 C         138.9059  141.9196  160.6920 C.ar    1  UNL1        0.2816
      6 O         138.2653  143.0252  159.9064 O.2     1  UNL1       -0.2652
      7 N         139.1157  142.0733  162.1693 N.ar    1  UNL1       -0.2951
      8 C         139.7563  140.9676  162.9549 C.ar    1  UNL1        0.0773
      9 C         139.9662  141.1213  164.4321 C.ar    1  UNL1        0.0890
     10 CL        139.5354  142.3807  165.1238 Cl      1  UNL1       -0.0794
     11 C         140.6068  140.0157  165.2177 C.ar    1  UNL1        0.0878
     12 C         141.0375  138.7563  164.5261 C.ar    1  UNL1        0.1543
     13 F         141.6781  137.6507  165.3116 F       1  UNL1       -0.2028
     14 C         140.8277  138.6026  163.0487 C.ar    1  UNL1        0.0355
     15 C         140.1871  139.7082  162.2632 C.ar    1  UNL1        0.0553
     16 C         139.9772  139.5545  160.7859 C.ar    1  UNL1        0.1705
     17 O         140.2965  138.4370  159.8377 O.2     1  UNL1       -0.4382
     18 N         140.8167  140.1694  166.6950 N.pl3   1  UNL1       -0.3050
     19 C         139.7796  139.9632  167.7590 C.3     1  UNL1        0.0910
     20 C         140.4225  140.2227  169.0893 C.3     1  UNL1        0.0244
     21 C         141.8568  140.5891  168.8474 C.3     1  UNL1        0.0357
     22 C         142.1004  140.5562  167.3676 C.3     1  UNL1        0.0922
     23 C         142.8696  140.9289  169.9002 C.3     1  UNL1        0.0525
     24 C         143.7385  142.1413  169.7417 C.3     1  UNL1        0.0169
     25 N         143.0136  140.0563  171.1117 N.3     1  UNL1       -0.3221
     26 H         143.7428  140.4330  171.7174 H       1  UNL1        0.1188
     27 H         143.2667  139.1115  170.8222 H       1  UNL1        0.1188
     28 C         138.6850  143.3327  162.8610 C.3     1  UNL1        0.0886
     29 C         137.6481  144.1108  163.6155 C.3     1  UNL1        0.0246
     30 C         138.9757  144.7357  163.3045 C.3     1  UNL1        0.0246
@<TRIPOS>BOND
     1     1     2    1
     2     2     3   ar
     3     3     4   ar
     4     4     5   ar
     5     5     6    2
     6     5     7   ar
     7     7    28    1
     8    28    29    1
     9    29    30    1
    10     7     8   ar
    11     8     9   ar
    12     9    10    1
    13     9    11   ar
    14    11    18    1
    15    18    19    1
    16    19    20    1
    17    21    20    1
    18    21    23    1
    19    23    24    1
    20    23    25    1
    21    21    22    1
    22    11    12   ar
    23    12    13    1
    24    12    14   ar
    25    14    15   ar
    26    15    16   ar
    27    16    17   ar
    28    17     2   ar
    29    16     4   ar
    30    30    28    1
    31    15     8   ar
    32    22    18    1
    33    25    26    1
    34    25    27    1
@<TRIPOS>MOLECULE
*****
 30 34 0 0 0
SMALL
GASTEIGER

@<TRIPOS>ATOM
      1 C         142.9515  138.8925  157.1327 C.3     1  UNL1        0.0950
      2 C         142.8656  139.5934  158.4561 C.ar    1  UNL1        0.2063
      3 N         142.9768  141.0725  158.6794 N.ar    1  UNL1       -0.2072
      4 C         142.8333  141.3314  160.1499 C.ar    1  UNL1        0.1744
      5 C         142.8588  142.5979  160.9532 C.ar    1  UNL1        0.2816
      6 O         143.0587  143.9170  160.2676 O.2     1  UNL1       -0.2652
      7 N         142.6845  142.5453  162.4421 N.ar    1  UNL1       -0.2951
      8 C         142.4846  141.2262  163.1277 C.ar    1  UNL1        0.0773
      9 C         142.3103  141.1735  164.6166 C.ar    1  UNL1        0.0890
     10 CL        142.3358  142.4400  165.4199 Cl      1  UNL1       -0.0794
     11 C         142.1105  139.8544  165.3022 C.ar    1  UNL1        0.0878
     12 C         142.0849  138.5880  164.4989 C.ar    1  UNL1        0.1543
     13 F         141.8851  137.2689  165.1844 F       1  UNL1       -0.2028
     14 C         142.2593  138.6405  163.0099 C.ar    1  UNL1        0.0355
     15 C         142.4591  139.9597  162.3243 C.ar    1  UNL1        0.0553
     16 C         142.6335  140.0123  160.8355 C.ar    1  UNL1        0.1705
     17 O         142.6534  138.9381  159.7886 O.2     1  UNL1       -0.4382
     18 N         141.9361  139.8018  166.7910 N.pl3   1  UNL1       -0.3050
     19 C         142.9028  139.2064  167.7714 C.3     1  UNL1        0.0910
     20 C         142.3285  139.3720  169.1474 C.3     1  UNL1        0.0244
     21 C         141.0070  140.0697  169.0172 C.3     1  UNL1        0.0357
     22 C         140.7645  140.3353  167.5610 C.3     1  UNL1        0.0922
     23 C         140.0892  140.4372  170.1452 C.3     1  UNL1        0.0525
     24 C         139.5097  141.8186  170.2209 C.3     1  UNL1        0.0169
     25 N         139.7510  139.4233  171.1976 N.3     1  UNL1       -0.3221
     26 H         139.1200  139.8408  171.8817 H       1  UNL1        0.1188
     27 H         140.6056  139.1195  171.6643 H       1  UNL1        0.1188
     28 C         142.7100  143.8118  163.2454 C.3     1  UNL1        0.0886
     29 C         143.4746  144.8416  164.0232 C.3     1  UNL1        0.0246
     30 C         141.9897  144.9756  163.8591 C.3     1  UNL1        0.0246
@<TRIPOS>BOND
     1     1     2    1
     2     2     3   ar
     3     3     4   ar
     4     4     5   ar
     5     5     6    2
     6     5     7   ar
     7     7    28    1
     8    28    29    1
     9    29    30    1
    10     7     8   ar
    11     8     9   ar
    12     9    10    1
    13     9    11   ar
    14    11    18    1
    15    18    19    1
    16    19    20    1
    17    21    20    1
    18    21    23    1
    19    23    24    1
    20    23    25    1
    21    21    22    1
    22    11    12   ar
    23    12    13    1
    24    12    14   ar
    25    14    15   ar
    26    15    16   ar
    27    16    17   ar
    28    17     2   ar
    29    16     4   ar
    30    30    28    1
    31    15     8   ar
    32    22    18    1
    33    25    26    1
    34    25    27    1
@<TRIPOS>MOLECULE
*****
 30 34 0 0 0
SMALL
GASTEIGER

@<TRIPOS>ATOM
      1 C         140.2387  140.9892  170.8056 C.3     1  UNL1        0.0950
      2 C         140.1378  140.8504  169.3154 C.ar    1  UNL1        0.2063
      3 N         139.3755  139.7895  168.5783 N.ar    1  UNL1       -0.2072
      4 C         139.5480  140.0316  167.1080 C.ar    1  UNL1        0.1744
      5 C         139.0262  139.3062  165.9033 C.ar    1  UNL1        0.2816
      6 O         138.1573  138.0956  166.0749 O.2     1  UNL1       -0.2652
      7 N         139.3732  139.7913  164.5270 N.ar    1  UNL1       -0.2951
      8 C         140.2421  141.0019  164.3554 C.ar    1  UNL1        0.0773
      9 C         140.5891  141.4871  162.9792 C.ar    1  UNL1        0.0890
     10 CL        140.0673  140.7616  161.7745 Cl      1  UNL1       -0.0794
     11 C         141.4580  142.6977  162.8076 C.ar    1  UNL1        0.0878
     12 C         141.9799  143.4232  164.0123 C.ar    1  UNL1        0.1543
     13 F         142.8488  144.6338  163.8407 F       1  UNL1       -0.2028
     14 C         141.6329  142.9380  165.3886 C.ar    1  UNL1        0.0355
     15 C         140.7640  141.7274  165.5602 C.ar    1  UNL1        0.0553
     16 C         140.4169  141.2422  166.9365 C.ar    1  UNL1        0.1705
     17 O         140.7814  141.7483  168.3007 O.2     1  UNL1       -0.4382
     18 N         141.8051  143.1829  161.4313 N.pl3   1  UNL1       -0.3050
     19 C         142.8481  142.5966  160.5267 C.3     1  UNL1        0.0910
     20 C         142.8577  143.3909  159.2542 C.3     1  UNL1        0.0244
     21 C         141.8205  144.4681  159.3725 C.3     1  UNL1        0.0357
     22 C         141.1700  144.3396  160.7180 C.3     1  UNL1        0.0922
     23 C         141.4917  145.4938  158.3286 C.3     1  UNL1        0.0525
     24 C         140.0648  145.7258  157.9284 C.3     1  UNL1        0.0169
     25 N         142.5897  146.2875  157.6849 N.3     1  UNL1       -0.3221
     26 H         142.1887  146.9329  157.0044 H       1  UNL1        0.1188
     27 H         143.2354  145.6542  157.2133 H       1  UNL1        0.1188
     28 C         138.8514  139.0659  163.3223 C.3     1  UNL1        0.0886
     29 C         138.9253  137.9104  162.3687 C.3     1  UNL1        0.0246
     30 C         137.8736  138.9648  162.1893 C.3     1  UNL1        0.0246
@<TRIPOS>BOND
     1     1     2    1
     2     2     3   ar
     3     3     4   ar
     4     4     5   ar
     5     5     6    2
     6     5     7   ar
     7     7    28    1
     8    28    29    1
     9    29    30    1
    10     7     8   ar
    11     8     9   ar
    12     9    10    1
    13     9    11   ar
    14    11    18    1
    15    18    19    1
    16    19    20    1
    17    21    20    1
    18    21    23    1
    19    23    24    1
    20    23    25    1
    21    21    22    1
    22    11    12   ar
    23    12    13    1
    24    12    14   ar
    25    14    15   ar
    26    15    16   ar
    27    16    17   ar
    28    17     2   ar
    29    16     4   ar
    30    30    28    1
    31    15     8   ar
    32    22    18    1
    33    25    26    1
    34    25    27    1
@<TRIPOS>MOLECULE
*****
 30 34 0 0 0
SMALL
GASTEIGER

@<TRIPOS>ATOM
      1 C         137.4538  142.3230  157.2426 C.3     1  UNL1        0.0950
      2 C         138.3225  142.4705  158.4566 C.ar    1  UNL1        0.2063
      3 N         139.4717  143.4224  158.6079 N.ar    1  UNL1       -0.2072
      4 C         140.0540  143.2323  159.9772 C.ar    1  UNL1        0.1744
      5 C         141.2010  143.8948  160.6810 C.ar    1  UNL1        0.2816
      6 O         141.9905  144.9643  159.9861 O.2     1  UNL1       -0.2652
      7 N         141.5586  143.4878  162.0798 N.ar    1  UNL1       -0.2951
      8 C         140.7692  142.4183  162.7747 C.ar    1  UNL1        0.0773
      9 C         141.1268  142.0112  164.1734 C.ar    1  UNL1        0.0890
     10 CL        142.2738  142.6738  164.8772 Cl      1  UNL1       -0.0794
     11 C         140.3373  140.9417  164.8683 C.ar    1  UNL1        0.0878
     12 C         139.1903  140.2792  164.1645 C.ar    1  UNL1        0.1543
     13 F         138.4009  139.2097  164.8594 F       1  UNL1       -0.2028
     14 C         138.8327  140.6862  162.7657 C.ar    1  UNL1        0.0355
     15 C         139.6221  141.7557  162.0708 C.ar    1  UNL1        0.0553
     16 C         139.2646  142.1627  160.6721 C.ar    1  UNL1        0.1705
     17 O         138.1944  141.6920  159.7323 O.2     1  UNL1       -0.4382
     18 N         140.6949  140.5347  166.2670 N.pl3   1  UNL1       -0.3050
     19 C         141.8829  139.7121  166.6694 C.3     1  UNL1        0.0910
     20 C         141.8495  139.5478  168.1601 C.3     1  UNL1        0.0244
     21 C         140.6408  140.2689  168.6789 C.3     1  UNL1        0.0357
     22 C         139.9272  140.8788  167.5089 C.3     1  UNL1        0.0922
     23 C         140.2196  140.3635  170.1154 C.3     1  UNL1        0.0525
     24 C         141.1632  140.9231  171.1383 C.3     1  UNL1        0.0169
     25 N         138.8548  139.8984  170.5290 N.3     1  UNL1       -0.3221
     26 H         138.7389  140.0351  171.5331 H       1  UNL1        0.1188
     27 H         138.7511  138.9084  170.3064 H       1  UNL1        0.1188
     28 C         142.7057  144.1503  162.7836 C.3     1  UNL1        0.0886
     29 C         143.2229  145.2051  163.7162 C.3     1  UNL1        0.0246
     30 C         144.1751  144.2431  163.0699 C.3     1  UNL1        0.0246
@<TRIPOS>BOND
     1     1     2    1
     2     2     3   ar
     3     3     4   ar
     4     4     5   ar
     5     5     6    2
     6     5     7   ar
     7     7    28    1
     8    28    29    1
     9    29    30    1
    10     7     8   ar
    11     8     9   ar
    12     9    10    1
    13     9    11   ar
    14    11    18    1
    15    18    19    1
    16    19    20    1
    17    21    20    1
    18    21    23    1
    19    23    24    1
    20    23    25    1
    21    21    22    1
    22    11    12   ar
    23    12    13    1
    24    12    14   ar
    25    14    15   ar
    26    15    16   ar
    27    16    17   ar
    28    17     2   ar
    29    16     4   ar
    30    30    28    1
    31    15     8   ar
    32    22    18    1
    33    25    26    1
    34    25    27    1
@<TRIPOS>MOLECULE
*****
 30 34 0 0 0
SMALL
GASTEIGER

@<TRIPOS>ATOM
      1 C         143.9072  142.7407  157.1219 C.3     1  UNL1        0.0950
      2 C         143.2393  142.7958  158.4639 C.ar    1  UNL1        0.2063
      3 N         141.9698  143.5262  158.7876 N.ar    1  UNL1       -0.2072
      4 C         141.6696  143.3120  160.2415 C.ar    1  UNL1        0.1744
      5 C         140.5492  143.7911  161.1162 C.ar    1  UNL1        0.2816
      6 O         139.4651  144.6538  160.5413 O.2     1  UNL1       -0.2652
      7 N         140.5127  143.4075  162.5659 N.ar    1  UNL1       -0.2951
      8 C         141.5968  142.5447  163.1409 C.ar    1  UNL1        0.0773
      9 C         141.5604  142.1611  164.5905 C.ar    1  UNL1        0.0890
     10 CL        140.4400  142.6402  165.4652 Cl      1  UNL1       -0.0794
     11 C         142.6445  141.2983  165.1654 C.ar    1  UNL1        0.0878
     12 C         143.7649  140.8192  164.2907 C.ar    1  UNL1        0.1543
     13 F         144.8489  139.9565  164.8657 F       1  UNL1       -0.2028
     14 C         143.8013  141.2029  162.8410 C.ar    1  UNL1        0.0355
     15 C         142.7172  142.0656  162.2661 C.ar    1  UNL1        0.0553
     16 C         142.7536  142.4493  160.8165 C.ar    1  UNL1        0.1705
     17 O         143.7237  142.1302  159.7178 O.2     1  UNL1       -0.4382
     18 N         142.6081  140.9147  166.6150 N.pl3   1  UNL1       -0.3050
     19 C         142.4956  139.5199  167.1554 C.3     1  UNL1        0.0910
     20 C         142.4958  139.6017  168.6533 C.3     1  UNL1        0.0244
     21 C         142.6085  141.0470  169.0386 C.3     1  UNL1        0.0357
     22 C         142.6778  141.8585  167.7789 C.3     1  UNL1        0.0922
     23 C         142.6452  141.5862  170.4378 C.3     1  UNL1        0.0525
     24 C         143.0027  143.0229  170.6788 C.3     1  UNL1        0.0169
     25 N         142.3245  140.6887  171.5960 N.3     1  UNL1       -0.3221
     26 H         142.3978  141.2166  172.4657 H       1  UNL1        0.1188
     27 H         142.9825  139.9095  171.6148 H       1  UNL1        0.1188
     28 C         139.3924  143.8866  163.4406 C.3     1  UNL1        0.0886
     29 C         138.8678  144.8369  164.4758 C.3     1  UNL1        0.0246
     30 C         137.9763  143.7661  163.9205 C.3     1  UNL1        0.0246
@<TRIPOS>BOND
     1     1     2    1
     2     2     3   ar
     3     3     4   ar
     4     4     5   ar
     5     5     6    2
     6     5     7   ar
     7     7    28    1
     8    28    29    1
     9    29    30    1
    10     7     8   ar
    11     8     9   ar
    12     9    10    1
    13     9    11   ar
    14    11    18    1
    15    18    19    1
    16    19    20    1
    17    21    20    1
    18    21    23    1
    19    23    24    1
    20    23    25    1
    21    21    22    1
    22    11    12   ar
    23    12    13    1
    24    12    14   ar
    25    14    15   ar
    26    15    16   ar
    27    16    17   ar
    28    17     2   ar
    29    16     4   ar
    30    30    28    1
    31    15     8   ar
    32    22    18    1
    33    25    26    1
    34    25    27    1
@<TRIPOS>MOLECULE
*****
 30 34 0 0 0
SMALL
GASTEIGER

@<TRIPOS>ATOM
      1 C         140.0113  142.8066  170.7141 C.3     1  UNL1        0.0950
      2 C         140.4039  142.4900  169.3014 C.ar    1  UNL1        0.2063
      3 N         141.2997  141.3686  168.8655 N.ar    1  UNL1       -0.2072
      4 C         141.4191  141.4247  167.3713 C.ar    1  UNL1        0.1744
      5 C         142.1701  140.5725  166.3917 C.ar    1  UNL1        0.2816
      6 O         142.9920  139.4163  166.8792 O.2     1  UNL1       -0.2652
      7 N         142.0992  140.8764  164.9245 N.ar    1  UNL1       -0.2951
      8 C         141.2773  142.0325  164.4369 C.ar    1  UNL1        0.0773
      9 C         141.2063  142.3365  162.9698 C.ar    1  UNL1        0.0890
     10 CL        141.9573  141.4842  161.9902 Cl      1  UNL1       -0.0794
     11 C         140.3844  143.4926  162.4822 C.ar    1  UNL1        0.0878
     12 C         139.6334  144.3449  163.4618 C.ar    1  UNL1        0.1543
     13 F         138.8115  145.5011  162.9743 F       1  UNL1       -0.2028
     14 C         139.7043  144.0410  164.9290 C.ar    1  UNL1        0.0355
     15 C         140.5262  142.8848  165.4166 C.ar    1  UNL1        0.0553
     16 C         140.5972  142.5809  166.8837 C.ar    1  UNL1        0.1705
     17 O         139.9698  143.2392  168.0766 O.2     1  UNL1       -0.4382
     18 N         140.3134  143.7966  161.0151 N.pl3   1  UNL1       -0.3050
     19 C         139.5510  143.0129  159.9882 C.3     1  UNL1        0.0910
     20 C         139.7588  143.6696  158.6556 C.3     1  UNL1        0.0244
     21 C         140.6498  144.8591  158.8590 C.3     1  UNL1        0.0357
     22 C         140.9925  144.9376  160.3171 C.3     1  UNL1        0.0922
     23 C         141.1160  145.8041  157.7916 C.3     1  UNL1        0.0525
     24 C         140.1572  146.2817  156.7416 C.3     1  UNL1        0.0169
     25 N         142.5412  146.2717  157.7741 N.3     1  UNL1       -0.3221
     26 H         142.6819  146.9042  156.9864 H       1  UNL1        0.1188
     27 H         143.1617  145.4677  157.6796 H       1  UNL1        0.1188
     28 C         142.8501  140.0241  163.9449 C.3     1  UNL1        0.0886
     29 C         144.1013  139.7286  163.1721 C.3     1  UNL1        0.0246
     30 C         142.8998  138.8435  163.0209 C.3     1  UNL1        0.0246
@<TRIPOS>BOND
     1     1     2    1
     2     2     3   ar
     3     3     4   ar
     4     4     5   ar
     5     5     6    2
     6     5     7   ar
     7     7    28    1
     8    28    29    1
     9    29    30    1
    10     7     8   ar
    11     8     9   ar
    12     9    10    1
    13     9    11   ar
    14    11    18    1
    15    18    19    1
    16    19    20    1
    17    21    20    1
    18    21    23    1
    19    23    24    1
    20    23    25    1
    21    21    22    1
    22    11    12   ar
    23    12    13    1
    24    12    14   ar
    25    14    15   ar
    26    15    16   ar
    27    16    17   ar
    28    17     2   ar
    29    16     4   ar
    30    30    28    1
    31    15     8   ar
    32    22    18    1
    33    25    26    1
    34    25    27    1
@<TRIPOS>MOLECULE
*****
 30 34 0 0 0
SMALL
GASTEIGER

@<TRIPOS>ATOM
      1 C         144.3818  139.5851  155.6943 C.3     1  UNL1        0.0950
      2 C         143.6019  139.5517  156.9752 C.ar    1  UNL1        0.2063
      3 N         142.1370  139.2580  157.1082 N.ar    1  UNL1       -0.2072
      4 C         141.7798  139.3309  158.5632 C.ar    1  UNL1        0.1744
      5 C         140.4823  139.1326  159.2893 C.ar    1  UNL1        0.2816
      6 O         139.2382  138.7938  158.5230 O.2     1  UNL1       -0.2652
      7 N         140.4290  139.2730  160.7818 N.ar    1  UNL1       -0.2951
      8 C         141.6732  139.6118  161.5481 C.ar    1  UNL1        0.0773
      9 C         141.6200  139.7523  163.0405 C.ar    1  UNL1        0.0890
     10 CL        140.3225  139.5540  163.7666 Cl      1  UNL1       -0.0794
     11 C         142.8641  140.0911  163.8068 C.ar    1  UNL1        0.0878
     12 C         144.1616  140.2894  163.0807 C.ar    1  UNL1        0.1543
     13 F         145.4057  140.6282  163.8471 F       1  UNL1       -0.2028
     14 C         144.2149  140.1490  161.5882 C.ar    1  UNL1        0.0355
     15 C         142.9707  139.8102  160.8219 C.ar    1  UNL1        0.0553
     16 C         143.0240  139.6697  159.3295 C.ar    1  UNL1        0.1705
     17 O         144.1501  139.8061  158.3480 O.2     1  UNL1       -0.4382
     18 N         142.8109  140.2316  165.2993 N.pl3   1  UNL1       -0.3050
     19 C         142.8521  139.1084  166.2926 C.3     1  UNL1        0.0910
     20 C         142.7737  139.7026  167.6678 C.3     1  UNL1        0.0244
     21 C         142.6841  141.1931  167.5242 C.3     1  UNL1        0.0357
     22 C         142.7071  141.5200  166.0605 C.3     1  UNL1        0.0922
     23 C         142.5884  142.1827  168.6472 C.3     1  UNL1        0.0525
     24 C         141.2614  142.7822  169.0076 C.3     1  UNL1        0.0169
     25 N         143.8196  142.5731  169.4100 N.3     1  UNL1       -0.3221
     26 H         143.5720  143.2497  170.1319 H       1  UNL1        0.1188
     27 H         144.4973  142.9896  168.7715 H       1  UNL1        0.1188
     28 C         139.1316  139.0747  161.5079 C.3     1  UNL1        0.0886
     29 C         138.1343  138.1640  162.1607 C.3     1  UNL1        0.0246
     30 C         137.8816  139.6418  162.1128 C.3     1  UNL1        0.0246
@<TRIPOS>BOND
     1     1     2    1
     2     2     3   ar
     3     3     4   ar
     4     4     5   ar
     5     5     6    2
     6     5     7   ar
     7     7    28    1
     8    28    29    1
     9    29    30    1
    10     7     8   ar
    11     8     9   ar
    12     9    10    1
    13     9    11   ar
    14    11    18    1
    15    18    19    1
    16    19    20    1
    17    21    20    1
    18    21    23    1
    19    23    24    1
    20    23    25    1
    21    21    22    1
    22    11    12   ar
    23    12    13    1
    24    12    14   ar
    25    14    15   ar
    26    15    16   ar
    27    16    17   ar
    28    17     2   ar
    29    16     4   ar
    30    30    28    1
    31    15     8   ar
    32    22    18    1
    33    25    26    1
    34    25    27    1
@<TRIPOS>MOLECULE
*****
 30 34 0 0 0
SMALL
GASTEIGER

@<TRIPOS>ATOM
      1 C         141.8449  145.6272  155.7296 C.3     1  UNL1        0.0950
      2 C         141.5381  145.1587  157.1212 C.ar    1  UNL1        0.2063
      3 N         140.6895  145.8786  158.1269 N.ar    1  UNL1       -0.2072
      4 C         140.6530  145.0529  159.3786 C.ar    1  UNL1        0.1744
      5 C         139.9743  145.2623  160.6998 C.ar    1  UNL1        0.2816
      6 O         139.1482  146.4927  160.9319 O.2     1  UNL1       -0.2652
      7 N         140.1216  144.2414  161.7889 N.ar    1  UNL1       -0.2951
      8 C         140.9477  143.0111  161.5568 C.ar    1  UNL1        0.0773
      9 C         141.0950  141.9902  162.6458 C.ar    1  UNL1        0.0890
     10 CL        140.4163  142.1996  163.9669 Cl      1  UNL1       -0.0794
     11 C         141.9211  140.7598  162.4136 C.ar    1  UNL1        0.0878
     12 C         142.5998  140.5504  161.0925 C.ar    1  UNL1        0.1543
     13 F         143.4259  139.3200  160.8604 F       1  UNL1       -0.2028
     14 C         142.4525  141.5713  160.0034 C.ar    1  UNL1        0.0355
     15 C         141.6264  142.8016  160.2355 C.ar    1  UNL1        0.0553
     16 C         141.4790  143.8225  159.1465 C.ar    1  UNL1        0.1705
     17 O         142.0261  143.8879  157.7513 O.2     1  UNL1       -0.4382
     18 N         142.0685  139.7389  163.5027 N.pl3   1  UNL1       -0.3050
     19 C         141.4709  138.3631  163.5082 C.3     1  UNL1        0.0910
     20 C         141.8724  137.6884  164.7864 C.3     1  UNL1        0.0244
     21 C         142.7181  138.6473  165.5708 C.3     1  UNL1        0.0357
     22 C         142.8393  139.9146  164.7775 C.3     1  UNL1        0.0922
     23 C         143.3344  138.3850  166.9129 C.3     1  UNL1        0.0525
     24 C         142.8709  139.1542  168.1143 C.3     1  UNL1        0.0169
     25 N         144.4144  137.3536  167.0536 N.3     1  UNL1       -0.3221
     26 H         144.7157  137.3074  168.0270 H       1  UNL1        0.1188
     27 H         145.2068  137.6084  166.4641 H       1  UNL1        0.1188
     28 C         139.4429  144.4508  163.1100 C.3     1  UNL1        0.0886
     29 C         138.2148  144.3673  163.9672 C.3     1  UNL1        0.0246
     30 C         139.4954  144.8971  164.5411 C.3     1  UNL1        0.0246
@<TRIPOS>BOND
     1     1     2    1
     2     2     3   ar
     3     3     4   ar
     4     4     5   ar
     5     5     6    2
     6     5     7   ar
     7     7    28    1
     8    28    29    1
     9    29    30    1
    10     7     8   ar
    11     8     9   ar
    12     9    10    1
    13     9    11   ar
    14    11    18    1
    15    18    19    1
    16    19    20    1
    17    21    20    1
    18    21    23    1
    19    23    24    1
    20    23    25    1
    21    21    22    1
    22    11    12   ar
    23    12    13    1
    24    12    14   ar
    25    14    15   ar
    26    15    16   ar
    27    16    17   ar
    28    17     2   ar
    29    16     4   ar
    30    30    28    1
    31    15     8   ar
    32    22    18    1
    33    25    26    1
    34    25    27    1
