@<TRIPOS>MOLECULE
*****
 30 33 0 0 0
SMALL
GASTEIGER

@<TRIPOS>ATOM
      1 C         139.7630  138.4074  162.5426 C.ar    1  UNL1        0.0853
      2 C         141.0952  137.7181  162.5314 C.ar    1  UNL1        0.1045
      3 N         142.0354  137.8844  163.6883 N.ar    1  UNL1       -0.2436
      4 C         141.6433  138.7400  164.8564 C.ar    1  UNL1        0.0825
      5 C         142.5835  138.9063  166.0132 C.ar    1  UNL1        0.0191
      6 C         142.1915  139.7618  167.1813 C.ar    1  UNL1        0.0016
      7 C         140.8593  140.4511  167.1924 C.ar    1  UNL1        0.0016
      8 C         139.9191  140.2848  166.0356 C.ar    1  UNL1        0.0028
      9 C         140.3111  139.4292  164.8675 C.ar    1  UNL1        0.0309
     10 C         139.3709  139.2629  163.7106 C.ar    1  UNL1        0.0519
     11 C         140.4672  141.3066  168.3605 C.ar    1  UNL1        0.0192
     12 C         140.8671  142.7518  168.3994 C.ar    1  UNL1        0.0031
     13 C         140.4751  143.6074  169.5675 C.ar    1  UNL1        0.0207
     14 C         139.6832  143.0177  170.6967 C.ar    1  UNL1        0.0989
     15 N         139.2833  141.5724  170.6578 N.ar    1  UNL1       -0.2423
     16 C         139.6753  140.7170  169.4898 C.ar    1  UNL1        0.0988
     17 N         139.3396  138.3309  159.9803 N.am    1  UNL1       -0.3252
     18 C         138.8228  138.2411  161.3856 C.2     1  UNL1        0.2455
     19 O         137.3659  137.9849  161.6340 O.2     1  UNL1       -0.2703
     20 H         138.7225  138.2218  159.2210 H       1  UNL1        0.1453
     21 H         140.2958  138.4990  159.8173 H       1  UNL1        0.1453
     22 N         138.0387  139.9522  163.7218 N.pl3   1  UNL1       -0.3325
     23 H         137.2710  139.5323  164.1730 H       1  UNL1        0.1468
     24 C         137.8761  141.2811  163.0453 C.3     1  UNL1        0.0870
     25 C         138.7014  142.4533  163.4868 C.3     1  UNL1        0.0195
     26 C         140.0248  142.7266  162.8356 C.3     1  UNL1        0.0017
     27 C         140.8501  143.8988  163.2770 C.3     1  UNL1        0.0001
     28 C         140.3520  144.7977  164.3697 C.3     1  UNL1        0.0000
     29 C         139.0286  144.5244  165.0209 C.3     1  UNL1        0.0001
     30 C         138.2033  143.3522  164.5795 C.3     1  UNL1        0.0017
@<TRIPOS>BOND
     1    17    18   am
     2    18    19    2
     3    18     1    1
     4     1     2   ar
     5     2     3   ar
     6     3     4   ar
     7     4     5   ar
     8     5     6   ar
     9     6     7   ar
    10     7    11    1
    11    11    12   ar
    12    12    13   ar
    13    13    14   ar
    14    14    15   ar
    15    15    16   ar
    16     7     8   ar
    17     8     9   ar
    18     9    10   ar
    19    10    22    1
    20    22    24    1
    21    24    25    1
    22    25    26    1
    23    26    27    1
    24    27    28    1
    25    28    29    1
    26    29    30    1
    27    10     1   ar
    28    30    25    1
    29     9     4   ar
    30    16    11   ar
    31    17    20    1
    32    17    21    1
    33    22    23    1
@<TRIPOS>MOLECULE
*****
 30 33 0 0 0
SMALL
GASTEIGER

@<TRIPOS>ATOM
      1 C         139.9721  144.2555  162.0760 C.ar    1  UNL1        0.0853
      2 C         139.1688  143.0840  161.5939 C.ar    1  UNL1        0.1045
      3 N         138.9097  141.9246  162.5096 N.ar    1  UNL1       -0.2436
      4 C         139.4538  141.9366  163.9074 C.ar    1  UNL1        0.0825
      5 C         139.1947  140.7771  164.8231 C.ar    1  UNL1        0.0191
      6 C         139.7388  140.7892  166.2208 C.ar    1  UNL1        0.0016
      7 C         140.5420  141.9607  166.7029 C.ar    1  UNL1        0.0016
      8 C         140.8011  143.1201  165.7873 C.ar    1  UNL1        0.0028
      9 C         140.2570  143.1081  164.3895 C.ar    1  UNL1        0.0309
     10 C         140.5162  144.2676  163.4738 C.ar    1  UNL1        0.0519
     11 C         141.0861  141.9727  168.1008 C.ar    1  UNL1        0.0192
     12 C         142.5473  142.2180  168.3348 C.ar    1  UNL1        0.0031
     13 C         143.0914  142.2300  169.7326 C.ar    1  UNL1        0.0207
     14 C         142.1742  141.9967  170.8964 C.ar    1  UNL1        0.0989
     15 N         140.7130  141.7514  170.6624 N.ar    1  UNL1       -0.2423
     16 C         140.1690  141.7394  169.2646 C.ar    1  UNL1        0.0988
     17 N         141.4586  145.4301  160.2981 N.am    1  UNL1       -0.3252
     18 C         140.2312  145.4150  161.1603 C.2     1  UNL1        0.2455
     19 O         139.2630  146.5594  161.1067 O.2     1  UNL1       -0.2703
     20 H         141.6286  146.1911  159.6971 H       1  UNL1        0.1453
     21 H         142.0940  144.6790  160.3333 H       1  UNL1        0.1453
     22 N         141.3194  145.4391  163.9559 N.pl3   1  UNL1       -0.3325
     23 H         140.8919  146.1377  164.5021 H       1  UNL1        0.1468
     24 C         142.7741  145.5461  163.6057 C.3     1  UNL1        0.0870
     25 C         143.6284  144.3138  163.5653 C.3     1  UNL1        0.0195
     26 C         144.1219  143.7011  164.8424 C.3     1  UNL1        0.0017
     27 C         144.9762  142.4688  164.8020 C.3     1  UNL1        0.0001
     28 C         145.3370  141.8492  163.4845 C.3     1  UNL1        0.0000
     29 C         144.8435  142.4619  162.2073 C.3     1  UNL1        0.0001
     30 C         143.9892  143.6942  162.2477 C.3     1  UNL1        0.0017
@<TRIPOS>BOND
     1    17    18   am
     2    18    19    2
     3    18     1    1
     4     1     2   ar
     5     2     3   ar
     6     3     4   ar
     7     4     5   ar
     8     5     6   ar
     9     6     7   ar
    10     7    11    1
    11    11    12   ar
    12    12    13   ar
    13    13    14   ar
    14    14    15   ar
    15    15    16   ar
    16     7     8   ar
    17     8     9   ar
    18     9    10   ar
    19    10    22    1
    20    22    24    1
    21    24    25    1
    22    25    26    1
    23    26    27    1
    24    27    28    1
    25    28    29    1
    26    29    30    1
    27    10     1   ar
    28    30    25    1
    29     9     4   ar
    30    16    11   ar
    31    17    20    1
    32    17    21    1
    33    22    23    1
@<TRIPOS>MOLECULE
*****
 30 33 0 0 0
SMALL
GASTEIGER

@<TRIPOS>ATOM
      1 C         139.9435  141.6719  169.3071 C.ar    1  UNL1        0.0853
      2 C         138.9978  140.7132  169.9679 C.ar    1  UNL1        0.1045
      3 N         138.3704  139.6087  169.1701 N.ar    1  UNL1       -0.2436
      4 C         138.6887  139.4629  167.7115 C.ar    1  UNL1        0.0825
      5 C         138.0613  138.3584  166.9137 C.ar    1  UNL1        0.0191
      6 C         138.3796  138.2126  165.4552 C.ar    1  UNL1        0.0016
      7 C         139.3252  139.1713  164.7944 C.ar    1  UNL1        0.0016
      8 C         139.9526  140.2758  165.5922 C.ar    1  UNL1        0.0028
      9 C         139.6344  140.4215  167.0507 C.ar    1  UNL1        0.0309
     10 C         140.2618  141.5261  167.8486 C.ar    1  UNL1        0.0519
     11 C         139.6435  139.0254  163.3358 C.ar    1  UNL1        0.0192
     12 C         140.8212  139.7459  162.7494 C.ar    1  UNL1        0.0031
     13 C         141.1395  139.6001  161.2908 C.ar    1  UNL1        0.0207
     14 C         140.2800  138.7337  160.4186 C.ar    1  UNL1        0.0989
     15 N         139.1022  138.0132  161.0050 N.ar    1  UNL1       -0.2423
     16 C         138.7840  138.1591  162.4636 C.ar    1  UNL1        0.0988
     17 N         141.5353  142.4512  171.2068 N.am    1  UNL1       -0.3252
     18 C         140.5709  142.7764  170.1049 C.2     1  UNL1        0.2455
     19 O         140.2339  144.2060  169.8009 O.2     1  UNL1       -0.2703
     20 H         141.9471  143.1761  171.7305 H       1  UNL1        0.1453
     21 H         141.7565  141.5128  171.4064 H       1  UNL1        0.1453
     22 N         141.2075  142.4847  167.1878 N.pl3   1  UNL1       -0.3325
     23 H         140.8647  143.3143  166.7833 H       1  UNL1        0.1468
     24 C         142.6754  142.1794  167.1432 C.3     1  UNL1        0.0870
     25 C         143.2120  141.2239  166.1190 C.3     1  UNL1        0.0195
     26 C         143.7612  141.7435  164.8235 C.3     1  UNL1        0.0017
     27 C         144.2977  140.7879  163.7993 C.3     1  UNL1        0.0001
     28 C         144.2850  139.3127  164.0705 C.3     1  UNL1        0.0000
     29 C         143.7357  138.7930  165.3660 C.3     1  UNL1        0.0001
     30 C         143.1992  139.7486  166.3903 C.3     1  UNL1        0.0017
@<TRIPOS>BOND
     1    17    18   am
     2    18    19    2
     3    18     1    1
     4     1     2   ar
     5     2     3   ar
     6     3     4   ar
     7     4     5   ar
     8     5     6   ar
     9     6     7   ar
    10     7    11    1
    11    11    12   ar
    12    12    13   ar
    13    13    14   ar
    14    14    15   ar
    15    15    16   ar
    16     7     8   ar
    17     8     9   ar
    18     9    10   ar
    19    10    22    1
    20    22    24    1
    21    24    25    1
    22    25    26    1
    23    26    27    1
    24    27    28    1
    25    28    29    1
    26    29    30    1
    27    10     1   ar
    28    30    25    1
    29     9     4   ar
    30    16    11   ar
    31    17    20    1
    32    17    21    1
    33    22    23    1
@<TRIPOS>MOLECULE
*****
 30 33 0 0 0
SMALL
GASTEIGER

@<TRIPOS>ATOM
      1 C         140.9574  144.8344  162.1215 C.ar    1  UNL1        0.0853
      2 C         142.3450  144.3804  161.7775 C.ar    1  UNL1        0.1045
      3 N         143.1014  143.4966  162.7244 N.ar    1  UNL1       -0.2436
      4 C         142.4701  143.0667  164.0155 C.ar    1  UNL1        0.0825
      5 C         143.2264  142.1829  164.9624 C.ar    1  UNL1        0.0191
      6 C         142.5951  141.7531  166.2534 C.ar    1  UNL1        0.0016
      7 C         141.2075  142.2071  166.5975 C.ar    1  UNL1        0.0016
      8 C         140.4512  143.0909  165.6505 C.ar    1  UNL1        0.0028
      9 C         141.0825  143.5207  164.3595 C.ar    1  UNL1        0.0309
     10 C         140.3261  144.4046  163.4125 C.ar    1  UNL1        0.0519
     11 C         140.5762  141.7772  167.8885 C.ar    1  UNL1        0.0192
     12 C         140.4366  142.7552  169.0173 C.ar    1  UNL1        0.0031
     13 C         139.8053  142.3253  170.3083 C.ar    1  UNL1        0.0207
     14 C         139.3137  140.9175  170.4706 C.ar    1  UNL1        0.0989
     15 N         139.4534  139.9395  169.3418 N.ar    1  UNL1       -0.2423
     16 C         140.0846  140.3694  168.0508 C.ar    1  UNL1        0.0988
     17 N         140.0261  145.3071  159.7425 N.am    1  UNL1       -0.3252
     18 C         140.2011  145.7183  161.1745 C.2     1  UNL1        0.2455
     19 O         139.6197  147.0132  161.6593 O.2     1  UNL1       -0.2703
     20 H         139.5297  145.8872  159.1210 H       1  UNL1        0.1453
     21 H         140.4077  144.4572  159.4243 H       1  UNL1        0.1453
     22 N         138.9385  144.8586  163.7565 N.pl3   1  UNL1       -0.3325
     23 H         138.8062  145.6023  164.3879 H       1  UNL1        0.1468
     24 C         137.7523  144.1794  163.1385 C.3     1  UNL1        0.0870
     25 C         137.8473  142.7441  162.7134 C.3     1  UNL1        0.0195
     26 C         137.6951  141.6497  163.7279 C.3     1  UNL1        0.0017
     27 C         137.7901  140.2144  163.3027 C.3     1  UNL1        0.0001
     28 C         138.0371  139.8733  161.8631 C.3     1  UNL1        0.0000
     29 C         138.1893  140.9677  160.8485 C.3     1  UNL1        0.0001
     30 C         138.0943  142.4031  161.2737 C.3     1  UNL1        0.0017
@<TRIPOS>BOND
     1    17    18   am
     2    18    19    2
     3    18     1    1
     4     1     2   ar
     5     2     3   ar
     6     3     4   ar
     7     4     5   ar
     8     5     6   ar
     9     6     7   ar
    10     7    11    1
    11    11    12   ar
    12    12    13   ar
    13    13    14   ar
    14    14    15   ar
    15    15    16   ar
    16     7     8   ar
    17     8     9   ar
    18     9    10   ar
    19    10    22    1
    20    22    24    1
    21    24    25    1
    22    25    26    1
    23    26    27    1
    24    27    28    1
    25    28    29    1
    26    29    30    1
    27    10     1   ar
    28    30    25    1
    29     9     4   ar
    30    16    11   ar
    31    17    20    1
    32    17    21    1
    33    22    23    1
@<TRIPOS>MOLECULE
*****
 30 33 0 0 0
SMALL
GASTEIGER

@<TRIPOS>ATOM
      1 C         140.8011  139.1221  161.9547 C.ar    1  UNL1        0.0853
      2 C         139.8272  137.9814  161.9615 C.ar    1  UNL1        0.1045
      3 N         139.0428  137.6723  163.2021 N.ar    1  UNL1       -0.2436
      4 C         139.2324  138.5040  164.4360 C.ar    1  UNL1        0.0825
      5 C         138.4480  138.1949  165.6766 C.ar    1  UNL1        0.0191
      6 C         138.6376  139.0265  166.9105 C.ar    1  UNL1        0.0016
      7 C         139.6115  140.1673  166.9036 C.ar    1  UNL1        0.0016
      8 C         140.3959  140.4764  165.6630 C.ar    1  UNL1        0.0028
      9 C         140.2063  139.6447  164.4292 C.ar    1  UNL1        0.0309
     10 C         140.9907  139.9538  163.1885 C.ar    1  UNL1        0.0519
     11 C         139.8011  140.9990  168.1376 C.ar    1  UNL1        0.0192
     12 C         140.4500  142.3479  168.0405 C.ar    1  UNL1        0.0031
     13 C         140.6395  143.1795  169.2744 C.ar    1  UNL1        0.0207
     14 C         140.1802  142.6623  170.6053 C.ar    1  UNL1        0.0989
     15 N         139.5313  141.3133  170.7024 N.ar    1  UNL1       -0.2423
     16 C         139.3418  140.4817  169.4685 C.ar    1  UNL1        0.0988
     17 N         140.8783  139.5987  159.4018 N.am    1  UNL1       -0.3252
     18 C         141.5855  139.4312  160.7140 C.2     1  UNL1        0.2455
     19 O         143.0771  139.5729  160.7855 O.2     1  UNL1       -0.2703
     20 H         141.3931  139.8015  158.5875 H       1  UNL1        0.1453
     21 H         139.8993  139.5057  159.3549 H       1  UNL1        0.1453
     22 N         141.9647  141.0946  163.1817 N.pl3   1  UNL1       -0.3325
     23 H         142.8979  140.9468  163.4583 H       1  UNL1        0.1468
     24 C         141.5168  142.4606  162.7534 C.3     1  UNL1        0.0870
     25 C         140.2931  143.0750  163.3659 C.3     1  UNL1        0.0195
     26 C         138.9502  142.8632  162.7322 C.3     1  UNL1        0.0017
     27 C         137.7265  143.4776  163.3447 C.3     1  UNL1        0.0001
     28 C         137.8458  144.3037  164.5910 C.3     1  UNL1        0.0000
     29 C         139.1887  144.5155  165.2248 C.3     1  UNL1        0.0001
     30 C         140.4124  143.9011  164.6123 C.3     1  UNL1        0.0017
@<TRIPOS>BOND
     1    17    18   am
     2    18    19    2
     3    18     1    1
     4     1     2   ar
     5     2     3   ar
     6     3     4   ar
     7     4     5   ar
     8     5     6   ar
     9     6     7   ar
    10     7    11    1
    11    11    12   ar
    12    12    13   ar
    13    13    14   ar
    14    14    15   ar
    15    15    16   ar
    16     7     8   ar
    17     8     9   ar
    18     9    10   ar
    19    10    22    1
    20    22    24    1
    21    24    25    1
    22    25    26    1
    23    26    27    1
    24    27    28    1
    25    28    29    1
    26    29    30    1
    27    10     1   ar
    28    30    25    1
    29     9     4   ar
    30    16    11   ar
    31    17    20    1
    32    17    21    1
    33    22    23    1
@<TRIPOS>MOLECULE
*****
 30 33 0 0 0
SMALL
GASTEIGER

@<TRIPOS>ATOM
      1 C         141.4156  141.6417  169.5167 C.ar    1  UNL1        0.0853
      2 C         140.6232  140.7600  170.4359 C.ar    1  UNL1        0.1045
      3 N         139.5281  139.8950  169.8860 N.ar    1  UNL1       -0.2436
      4 C         139.2253  139.9116  168.4169 C.ar    1  UNL1        0.0825
      5 C         138.1302  139.0466  167.8670 C.ar    1  UNL1        0.0191
      6 C         137.8275  139.0632  166.3980 C.ar    1  UNL1        0.0016
      7 C         138.6198  139.9449  165.4789 C.ar    1  UNL1        0.0016
      8 C         139.7150  140.8099  166.0288 C.ar    1  UNL1        0.0028
      9 C         140.0177  140.7933  167.4978 C.ar    1  UNL1        0.0309
     10 C         141.1129  141.6583  168.0477 C.ar    1  UNL1        0.0519
     11 C         138.3170  139.9615  164.0098 C.ar    1  UNL1        0.0192
     12 C         138.5909  138.7466  163.1738 C.ar    1  UNL1        0.0031
     13 C         138.2881  138.7632  161.7048 C.ar    1  UNL1        0.0207
     14 C         137.7114  139.9947  161.0718 C.ar    1  UNL1        0.0989
     15 N         137.4375  141.2097  161.9078 N.ar    1  UNL1       -0.2423
     16 C         137.7403  141.1930  163.3768 C.ar    1  UNL1        0.0988
     17 N         143.9300  142.0213  170.0496 N.am    1  UNL1       -0.3252
     18 C         142.5108  142.5067  170.0667 C.2     1  UNL1        0.2455
     19 O         142.1867  143.8571  170.6336 O.2     1  UNL1       -0.2703
     20 H         144.6488  142.5891  170.4106 H       1  UNL1        0.1453
     21 H         144.1426  141.1350  169.6776 H       1  UNL1        0.1453
     22 N         141.9052  142.5400  167.1286 N.pl3   1  UNL1       -0.3325
     23 H         141.6201  143.4689  166.9705 H       1  UNL1        0.1468
     24 C         143.1321  142.0062  166.4502 C.3     1  UNL1        0.0870
     25 C         143.5504  142.5535  165.1177 C.3     1  UNL1        0.0195
     26 C         142.8715  143.7690  164.5596 C.3     1  UNL1        0.0017
     27 C         143.2899  144.3163  163.2271 C.3     1  UNL1        0.0001
     28 C         144.3870  143.6480  162.4528 C.3     1  UNL1        0.0000
     29 C         145.0660  142.4324  163.0110 C.3     1  UNL1        0.0001
     30 C         144.6476  141.8852  164.3434 C.3     1  UNL1        0.0017
@<TRIPOS>BOND
     1    17    18   am
     2    18    19    2
     3    18     1    1
     4     1     2   ar
     5     2     3   ar
     6     3     4   ar
     7     4     5   ar
     8     5     6   ar
     9     6     7   ar
    10     7    11    1
    11    11    12   ar
    12    12    13   ar
    13    13    14   ar
    14    14    15   ar
    15    15    16   ar
    16     7     8   ar
    17     8     9   ar
    18     9    10   ar
    19    10    22    1
    20    22    24    1
    21    24    25    1
    22    25    26    1
    23    26    27    1
    24    27    28    1
    25    28    29    1
    26    29    30    1
    27    10     1   ar
    28    30    25    1
    29     9     4   ar
    30    16    11   ar
    31    17    20    1
    32    17    21    1
    33    22    23    1
@<TRIPOS>MOLECULE
*****
 30 33 0 0 0
SMALL
GASTEIGER

@<TRIPOS>ATOM
      1 C         140.8236  140.6606  169.8452 C.ar    1  UNL1        0.0853
      2 C         139.4229  140.2926  170.2359 C.ar    1  UNL1        0.1045
      3 N         138.4872  139.7144  169.2161 N.ar    1  UNL1       -0.2436
      4 C         138.9522  139.5043  167.8055 C.ar    1  UNL1        0.0825
      5 C         138.0165  138.9261  166.7856 C.ar    1  UNL1        0.0191
      6 C         138.4815  138.7160  165.3751 C.ar    1  UNL1        0.0016
      7 C         139.8821  139.0840  164.9845 C.ar    1  UNL1        0.0016
      8 C         140.8179  139.6622  166.0043 C.ar    1  UNL1        0.0028
      9 C         140.3529  139.8723  167.4148 C.ar    1  UNL1        0.0309
     10 C         141.2886  140.4505  168.4347 C.ar    1  UNL1        0.0519
     11 C         140.3471  138.8738  163.5739 C.ar    1  UNL1        0.0192
     12 C         140.1325  139.9449  162.5460 C.ar    1  UNL1        0.0031
     13 C         140.5974  139.7348  161.1354 C.ar    1  UNL1        0.0207
     14 C         141.2770  138.4534  160.7527 C.ar    1  UNL1        0.0989
     15 N         141.4916  137.3823  161.7807 N.ar    1  UNL1       -0.2423
     16 C         141.0267  137.5925  163.1912 C.ar    1  UNL1        0.0988
     17 N         142.7415  140.3511  171.5704 N.am    1  UNL1       -0.3252
     18 C         141.7594  141.2388  170.8652 C.2     1  UNL1        0.2455
     19 O         141.7129  142.7047  171.1798 O.2     1  UNL1       -0.2703
     20 H         143.3556  140.7305  172.2398 H       1  UNL1        0.1453
     21 H         142.7720  139.3890  171.3639 H       1  UNL1        0.1453
     22 N         142.6893  140.8185  168.0441 N.pl3   1  UNL1       -0.3325
     23 H         143.4212  140.1720  168.1690 H       1  UNL1        0.1468
     24 C         142.9749  142.1716  167.4630 C.3     1  UNL1        0.0870
     25 C         142.6739  142.4467  166.0195 C.3     1  UNL1        0.0195
     26 C         141.3798  143.1001  165.6344 C.3     1  UNL1        0.0017
     27 C         141.0789  143.3751  164.1909 C.3     1  UNL1        0.0001
     28 C         142.0720  142.9967  163.1324 C.3     1  UNL1        0.0000
     29 C         143.3662  142.3433  163.5174 C.3     1  UNL1        0.0001
     30 C         143.6672  142.0682  164.9610 C.3     1  UNL1        0.0017
@<TRIPOS>BOND
     1    17    18   am
     2    18    19    2
     3    18     1    1
     4     1     2   ar
     5     2     3   ar
     6     3     4   ar
     7     4     5   ar
     8     5     6   ar
     9     6     7   ar
    10     7    11    1
    11    11    12   ar
    12    12    13   ar
    13    13    14   ar
    14    14    15   ar
    15    15    16   ar
    16     7     8   ar
    17     8     9   ar
    18     9    10   ar
    19    10    22    1
    20    22    24    1
    21    24    25    1
    22    25    26    1
    23    26    27    1
    24    27    28    1
    25    28    29    1
    26    29    30    1
    27    10     1   ar
    28    30    25    1
    29     9     4   ar
    30    16    11   ar
    31    17    20    1
    32    17    21    1
    33    22    23    1
@<TRIPOS>MOLECULE
*****
 30 33 0 0 0
SMALL
GASTEIGER

@<TRIPOS>ATOM
      1 C         141.4716  141.5261  169.3074 C.ar    1  UNL1        0.0853
      2 C         140.4115  141.0014  170.2299 C.ar    1  UNL1        0.1045
      3 N         139.2916  140.1646  169.6865 N.ar    1  UNL1       -0.2436
      4 C         139.2316  139.8525  168.2205 C.ar    1  UNL1        0.0825
      5 C         138.1116  139.0157  167.6770 C.ar    1  UNL1        0.0191
      6 C         138.0517  138.7036  166.2111 C.ar    1  UNL1        0.0016
      7 C         139.1118  139.2284  165.2886 C.ar    1  UNL1        0.0016
      8 C         140.2317  140.0652  165.8321 C.ar    1  UNL1        0.0028
      9 C         140.2916  140.3772  167.2980 C.ar    1  UNL1        0.0309
     10 C         141.4116  141.2141  167.8415 C.ar    1  UNL1        0.0519
     11 C         139.0518  138.9163  163.8226 C.ar    1  UNL1        0.0192
     12 C         138.0204  139.5768  162.9567 C.ar    1  UNL1        0.0031
     13 C         137.9604  139.2648  161.4907 C.ar    1  UNL1        0.0207
     14 C         138.9319  138.2921  160.8907 C.ar    1  UNL1        0.0989
     15 N         139.9634  137.6315  161.7566 N.ar    1  UNL1       -0.2423
     16 C         140.0233  137.9436  163.2226 C.ar    1  UNL1        0.0988
     17 N         142.4678  142.9923  171.2069 N.am    1  UNL1       -0.3252
     18 C         142.5916  142.3630  169.8510 C.2     1  UNL1        0.2455
     19 O         143.8353  142.5704  169.0386 O.2     1  UNL1       -0.2703
     20 H         143.2028  143.5415  171.5637 H       1  UNL1        0.1453
     21 H         141.6514  142.8561  171.7401 H       1  UNL1        0.1453
     22 N         142.4717  141.7388  166.9191 N.pl3   1  UNL1       -0.3325
     23 H         143.3226  141.2535  166.8203 H       1  UNL1        0.1468
     24 C         142.2353  143.0030  166.1470 C.3     1  UNL1        0.0870
     25 C         141.0819  143.0942  165.1923 C.3     1  UNL1        0.0195
     26 C         141.2466  142.6421  163.7716 C.3     1  UNL1        0.0017
     27 C         140.0932  142.7333  162.8170 C.3     1  UNL1        0.0001
     28 C         138.7750  143.2765  163.2831 C.3     1  UNL1        0.0000
     29 C         138.6102  143.7285  164.7039 C.3     1  UNL1        0.0001
     30 C         139.7636  143.6374  165.6585 C.3     1  UNL1        0.0017
@<TRIPOS>BOND
     1    17    18   am
     2    18    19    2
     3    18     1    1
     4     1     2   ar
     5     2     3   ar
     6     3     4   ar
     7     4     5   ar
     8     5     6   ar
     9     6     7   ar
    10     7    11    1
    11    11    12   ar
    12    12    13   ar
    13    13    14   ar
    14    14    15   ar
    15    15    16   ar
    16     7     8   ar
    17     8     9   ar
    18     9    10   ar
    19    10    22    1
    20    22    24    1
    21    24    25    1
    22    25    26    1
    23    26    27    1
    24    27    28    1
    25    28    29    1
    26    29    30    1
    27    10     1   ar
    28    30    25    1
    29     9     4   ar
    30    16    11   ar
    31    17    20    1
    32    17    21    1
    33    22    23    1
@<TRIPOS>MOLECULE
*****
 30 33 0 0 0
SMALL
GASTEIGER

@<TRIPOS>ATOM
      1 C         138.6505  142.8028  162.7491 C.ar    1  UNL1        0.0853
      2 C         137.7979  141.6205  162.3954 C.ar    1  UNL1        0.1045
      3 N         137.6495  140.4859  163.3653 N.ar    1  UNL1       -0.2436
      4 C         138.3537  140.5336  164.6889 C.ar    1  UNL1        0.0825
      5 C         138.2053  139.3991  165.6587 C.ar    1  UNL1        0.0191
      6 C         138.9095  139.4469  166.9823 C.ar    1  UNL1        0.0016
      7 C         139.7621  140.6292  167.3359 C.ar    1  UNL1        0.0016
      8 C         139.9106  141.7638  166.3660 C.ar    1  UNL1        0.0028
      9 C         139.2063  141.7160  165.0425 C.ar    1  UNL1        0.0309
     10 C         139.3547  142.8506  164.0726 C.ar    1  UNL1        0.0519
     11 C         140.4664  140.6769  168.6595 C.ar    1  UNL1        0.0192
     12 C         141.9025  140.2559  168.7606 C.ar    1  UNL1        0.0031
     13 C         142.6067  140.3036  170.0842 C.ar    1  UNL1        0.0207
     14 C         141.8748  140.7724  171.3067 C.ar    1  UNL1        0.0989
     15 N         140.4386  141.1935  171.2056 N.ar    1  UNL1       -0.2423
     16 C         139.7344  141.1457  169.8820 C.ar    1  UNL1        0.0988
     17 N         139.2014  143.6634  160.3603 N.am    1  UNL1       -0.3252
     18 C         138.7989  143.9374  161.7791 C.2     1  UNL1        0.2455
     19 O         138.5449  145.3459  162.2280 O.2     1  UNL1       -0.2703
     20 H         139.2988  144.4081  159.7237 H       1  UNL1        0.1453
     21 H         139.3681  142.7390  160.0657 H       1  UNL1        0.1453
     22 N         140.2074  144.0329  164.4262 N.pl3   1  UNL1       -0.3325
     23 H         139.8314  144.7683  164.9620 H       1  UNL1        0.1468
     24 C         141.6329  144.0948  163.9635 C.3     1  UNL1        0.0870
     25 C         142.4475  142.8385  163.8736 C.3     1  UNL1        0.0195
     26 C         142.5386  142.0951  162.5740 C.3     1  UNL1        0.0017
     27 C         143.3531  140.8388  162.4841 C.3     1  UNL1        0.0001
     28 C         144.0765  140.3257  163.6938 C.3     1  UNL1        0.0000
     29 C         143.9854  141.0691  164.9935 C.3     1  UNL1        0.0001
     30 C         143.1709  142.3255  165.0834 C.3     1  UNL1        0.0017
@<TRIPOS>BOND
     1    17    18   am
     2    18    19    2
     3    18     1    1
     4     1     2   ar
     5     2     3   ar
     6     3     4   ar
     7     4     5   ar
     8     5     6   ar
     9     6     7   ar
    10     7    11    1
    11    11    12   ar
    12    12    13   ar
    13    13    14   ar
    14    14    15   ar
    15    15    16   ar
    16     7     8   ar
    17     8     9   ar
    18     9    10   ar
    19    10    22    1
    20    22    24    1
    21    24    25    1
    22    25    26    1
    23    26    27    1
    24    27    28    1
    25    28    29    1
    26    29    30    1
    27    10     1   ar
    28    30    25    1
    29     9     4   ar
    30    16    11   ar
    31    17    20    1
    32    17    21    1
    33    22    23    1
