@<TRIPOS>MOLECULE
*****
 59 65 0 0 0
SMALL
GASTEIGER

@<TRIPOS>ATOM
      1 C         141.1892  138.5414  160.0492 C.3     1  UNL1        0.1894
      2 C         140.0930  138.6546  159.0315 C.3     1  UNL1        0.0746
      3 C         140.4744  139.7292  158.0569 C.3     1  UNL1        0.1555
      4 N         141.8063  140.2802  158.4723 N.am    1  UNL1       -0.2678
      5 C         142.5636  141.3733  157.7782 C.2     1  UNL1        0.2440
      6 O         141.9929  142.0179  156.5499 O.2     1  UNL1       -0.2731
      7 C         142.2481  139.5461  159.7036 C.3     1  UNL1        0.1373
      8 C         139.6659  140.1746  156.8746 C.2     1  UNL1        0.2409
      9 O         138.8528  141.4326  156.9531 O.2     1  UNL1       -0.2733
     10 N         139.6704  139.3620  155.6138 N.am    1  UNL1       -0.2985
     11 H         140.2041  138.5362  155.5623 H       1  UNL1        0.1498
     12 C         138.8619  139.8074  154.4315 C.3     1  UNL1        0.1271
     13 C         138.5314  140.3772  153.0840 C.3     1  UNL1        0.0290
     14 C         139.9577  140.3205  153.5450 C.3     1  UNL1        0.0270
     15 C         137.4853  139.4489  154.9075 C.2     1  UNL1        0.2564
     16 O         137.1023  138.0088  155.0788 O.2     1  UNL1       -0.2718
     17 N         136.4917  140.5306  155.2120 N.am    1  UNL1       -0.1875
     18 H         136.7430  141.4758  155.0995 H       1  UNL1        0.1762
     19 S         135.1151  140.1722  155.6879 S.O2    1  UNL1        0.0543
     20 O         134.6495  140.0719  154.2656 O.2     1  UNL1       -0.1545
     21 O         135.5807  140.2725  157.1103 O.2     1  UNL1       -0.1545
     22 C         133.7385  139.8137  156.1638 C.3     1  UNL1        0.1490
     23 C         132.7419  138.7796  156.5965 C.3     1  UNL1        0.0273
     24 C         132.3508  140.2271  156.5553 C.3     1  UNL1        0.0273
     25 C         141.4138  140.5840  153.2994 C.3     1  UNL1        0.0021
     26 C         142.5542  141.5486  153.1615 C.3     1  UNL1        0.0001
     27 C         142.7955  140.0757  153.0119 C.3     1  UNL1        0.0001
     28 O         141.2210  137.5906  161.2088 O.3     1  UNL1       -0.4621
     29 C         139.4008  138.7839  165.1475 C.ar    1  UNL1        0.1579
     30 C         138.5344  138.2179  164.0617 C.ar    1  UNL1        0.1388
     31 N         139.1412  137.8201  162.7488 N.ar    1  UNL1       -0.2069
     32 C         140.6143  137.9884  162.5217 C.ar    1  UNL1        0.2249
     33 C         141.4807  138.5544  163.6075 C.ar    1  UNL1        0.0570
     34 C         142.9538  138.7227  163.3804 C.ar    1  UNL1        0.0161
     35 C         143.8202  139.2887  164.4662 C.ar    1  UNL1        0.0578
     36 CL        145.2934  139.4570  164.2391 Cl      1  UNL1       -0.0822
     37 C         143.2135  139.6865  165.7791 C.ar    1  UNL1        0.0115
     38 C         141.7404  139.5182  166.0062 C.ar    1  UNL1        0.0041
     39 C         140.8740  138.9522  164.9204 C.ar    1  UNL1        0.0401
     40 C         137.6275  138.4158  167.0102 C.3     1  UNL1        0.2525
     41 O         138.7941  139.1817  166.4604 O.3     1  UNL1       -0.4699
     42 C         143.8914  141.8219  158.3125 C.3     1  UNL1        0.1512
     43 C         145.0989  141.8156  157.4225 C.3     1  UNL1        0.0270
     44 C         146.2526  142.7277  157.7173 C.3     1  UNL1        0.0021
     45 C         147.4601  142.7214  156.8272 C.3     1  UNL1        0.0001
     46 C         147.5137  141.8030  155.6425 C.3     1  UNL1        0.0000
     47 C         146.3600  140.8909  155.3477 C.3     1  UNL1        0.0001
     48 C         145.1525  140.8972  156.2377 C.3     1  UNL1        0.0021
     49 N         144.0119  142.2767  159.7368 N.am    1  UNL1       -0.2640
     50 C         143.2855  143.5063  160.1954 C.2     1  UNL1        0.4021
     51 O         142.4387  144.2811  159.2297 O.2     1  UNL1       -0.2264
     52 H         144.5677  141.7682  160.3706 H       1  UNL1        0.1532
     53 O         143.4059  143.9613  161.6197 O.3     1  UNL1       -0.4295
     54 C         143.1125  143.0071  162.7392 C.3     1  UNL1        0.2645
     55 C         141.8598  142.1825  162.7129 C.3     1  UNL1        0.0567
     56 C         144.0718  142.8776  163.8851 C.3     1  UNL1        0.4342
     57 F         145.0310  142.7481  165.0309 F       1  UNL1       -0.1664
     58 F         145.2108  142.7516  162.9173 F       1  UNL1       -0.1664
     59 F         142.9326  143.0036  164.8528 F       1  UNL1       -0.1664
@<TRIPOS>BOND
     1    40    41    1
     2    41    29    1
     3    29    30   ar
     4    30    31   ar
     5    31    32   ar
     6    32    28    1
     7     1    28    1
     8     1     2    1
     9     2     3    1
    10     3     8    1
    11     8     9    2
    12     8    10   am
    13    12    10    1
    14    12    15    1
    15    15    16    2
    16    15    17   am
    17    17    19    1
    18    19    20    2
    19    19    21    2
    20    19    22    1
    21    22    23    1
    22    23    24    1
    23    12    13    1
    24    13    14    1
    25    14    25    1
    26    25    26    1
    27    26    27    1
    28     3     4    1
    29     4     5   am
    30     5     6    2
    31     5    42    1
    32    42    49    1
    33    49    50   am
    34    50    51    2
    35    50    53    1
    36    53    54    1
    37    54    55    1
    38    54    56    1
    39    56    57    1
    40    56    58    1
    41    56    59    1
    42    42    43    1
    43    43    44    1
    44    44    45    1
    45    45    46    1
    46    46    47    1
    47    47    48    1
    48     4     7    1
    49    32    33   ar
    50    33    34   ar
    51    34    35   ar
    52    35    36    1
    53    35    37   ar
    54    37    38   ar
    55    38    39   ar
    56    39    29   ar
    57     7     1    1
    58    39    33   ar
    59    14    12    1
    60    27    25    1
    61    48    43    1
    62    24    22    1
    63    10    11    1
    64    17    18    1
    65    49    52    1
@<TRIPOS>MOLECULE
*****
 59 65 0 0 0
SMALL
GASTEIGER

@<TRIPOS>ATOM
      1 C         138.7410  140.2414  159.0444 C.3     1  UNL1        0.1894
      2 C         139.4550  139.2163  158.2140 C.3     1  UNL1        0.0746
      3 C         140.4717  139.9283  157.3718 C.3     1  UNL1        0.1555
      4 N         140.3860  141.3935  157.6817 N.am    1  UNL1       -0.2678
      5 C         141.2231  142.4753  157.0660 C.2     1  UNL1        0.2440
      6 O         142.2599  142.1285  156.0390 O.2     1  UNL1       -0.2731
      7 C         139.3165  141.5869  158.7154 C.3     1  UNL1        0.1373
      8 C         141.4093  139.2878  156.3918 C.2     1  UNL1        0.2409
      9 O         141.1138  139.3469  154.9224 O.2     1  UNL1       -0.2733
     10 N         142.6426  138.5880  156.8811 N.am    1  UNL1       -0.2985
     11 H         142.8366  138.5492  157.8455 H       1  UNL1        0.1498
     12 C         143.5802  137.9474  155.9011 C.3     1  UNL1        0.1271
     13 C         144.7575  137.7642  154.9900 C.3     1  UNL1        0.0290
     14 C         144.5961  139.0418  155.7590 C.3     1  UNL1        0.0270
     15 C         142.8899  136.6305  155.7028 C.2     1  UNL1        0.2564
     16 O         141.8385  136.1812  156.6737 O.2     1  UNL1       -0.2718
     17 N         143.2511  135.7629  154.5337 N.am    1  UNL1       -0.1875
     18 H         143.9412  136.0578  153.8965 H       1  UNL1        0.1762
     19 S         142.5609  134.4461  154.3354 S.O2    1  UNL1        0.0543
     20 O         141.5540  135.1083  153.4424 O.2     1  UNL1       -0.1545
     21 O         143.5679  133.7838  155.2284 O.2     1  UNL1       -0.1545
     22 C         141.8706  133.1292  154.1371 C.3     1  UNL1        0.1490
     23 C         140.9976  132.0281  154.6619 C.3     1  UNL1        0.0273
     24 C         141.5481  131.9494  153.2688 C.3     1  UNL1        0.0273
     25 C         145.0894  140.4114  156.1211 C.3     1  UNL1        0.0021
     26 C         145.3333  141.4739  157.1514 C.3     1  UNL1        0.0001
     27 C         145.6998  141.7209  155.7179 C.3     1  UNL1        0.0001
     28 O         137.6442  139.9687  160.0306 O.3     1  UNL1       -0.4621
     29 C         138.6571  138.7478  164.2417 C.ar    1  UNL1        0.1579
     30 C         138.5821  137.7131  163.1583 C.ar    1  UNL1        0.1388
     31 N         138.2445  138.1201  161.7546 N.ar    1  UNL1       -0.2069
     32 C         137.9818  139.5617  161.4343 C.ar    1  UNL1        0.2249
     33 C         138.0568  140.5965  162.5177 C.ar    1  UNL1        0.0570
     34 C         137.7941  142.0381  162.1974 C.ar    1  UNL1        0.0161
     35 C         137.8691  143.0728  163.2808 C.ar    1  UNL1        0.0578
     36 CL        137.6064  144.5145  162.9605 Cl      1  UNL1       -0.0822
     37 C         138.2067  142.6658  164.6845 C.ar    1  UNL1        0.0115
     38 C         138.4694  141.2242  165.0048 C.ar    1  UNL1        0.0041
     39 C         138.3944  140.1895  163.9214 C.ar    1  UNL1        0.0401
     40 C         137.8979  138.0459  166.6252 C.3     1  UNL1        0.2525
     41 O         138.9947  138.3408  165.6454 O.3     1  UNL1       -0.4699
     42 C         141.0233  143.9039  157.4773 C.3     1  UNL1        0.1512
     43 C         140.0964  144.7869  156.6954 C.3     1  UNL1        0.0270
     44 C         138.9506  144.1861  155.9364 C.3     1  UNL1        0.0021
     45 C         138.0237  145.0691  155.1546 C.3     1  UNL1        0.0001
     46 C         138.2426  146.5528  155.1317 C.3     1  UNL1        0.0000
     47 C         139.3885  147.1536  155.8907 C.3     1  UNL1        0.0001
     48 C         140.3154  146.2706  156.6726 C.3     1  UNL1        0.0021
     49 N         141.7504  144.4495  158.6704 N.am    1  UNL1       -0.2640
     50 C         140.9973  144.7617  159.9295 C.2     1  UNL1        0.4021
     51 O         139.5170  144.5283  159.9954 O.2     1  UNL1       -0.2264
     52 H         142.7220  144.6028  158.6271 H       1  UNL1        0.1532
     53 O         141.7243  145.3074  161.1227 O.3     1  UNL1       -0.4295
     54 C         142.3029  144.3707  162.1414 C.3     1  UNL1        0.2645
     55 C         143.5056  143.5417  161.8004 C.3     1  UNL1        0.0567
     56 C         141.6787  144.2630  163.5012 C.3     1  UNL1        0.4342
     57 F         141.0546  144.1553  164.8608 F       1  UNL1       -0.1664
     58 F         141.1640  142.8968  163.1567 F       1  UNL1       -0.1664
     59 F         142.1935  145.6291  163.8456 F       1  UNL1       -0.1664
@<TRIPOS>BOND
     1    40    41    1
     2    41    29    1
     3    29    30   ar
     4    30    31   ar
     5    31    32   ar
     6    32    28    1
     7     1    28    1
     8     1     2    1
     9     2     3    1
    10     3     8    1
    11     8     9    2
    12     8    10   am
    13    12    10    1
    14    12    15    1
    15    15    16    2
    16    15    17   am
    17    17    19    1
    18    19    20    2
    19    19    21    2
    20    19    22    1
    21    22    23    1
    22    23    24    1
    23    12    13    1
    24    13    14    1
    25    14    25    1
    26    25    26    1
    27    26    27    1
    28     3     4    1
    29     4     5   am
    30     5     6    2
    31     5    42    1
    32    42    49    1
    33    49    50   am
    34    50    51    2
    35    50    53    1
    36    53    54    1
    37    54    55    1
    38    54    56    1
    39    56    57    1
    40    56    58    1
    41    56    59    1
    42    42    43    1
    43    43    44    1
    44    44    45    1
    45    45    46    1
    46    46    47    1
    47    47    48    1
    48     4     7    1
    49    32    33   ar
    50    33    34   ar
    51    34    35   ar
    52    35    36    1
    53    35    37   ar
    54    37    38   ar
    55    38    39   ar
    56    39    29   ar
    57     7     1    1
    58    39    33   ar
    59    14    12    1
    60    27    25    1
    61    48    43    1
    62    24    22    1
    63    10    11    1
    64    17    18    1
    65    49    52    1
@<TRIPOS>MOLECULE
*****
 59 65 0 0 0
SMALL
GASTEIGER

@<TRIPOS>ATOM
      1 C         142.7885  138.2775  160.5096 C.3     1  UNL1        0.1894
      2 C         142.8532  137.3831  159.3072 C.3     1  UNL1        0.0746
      3 C         142.1134  138.0556  158.1889 C.3     1  UNL1        0.1555
      4 N         141.5915  139.3656  158.7003 N.am    1  UNL1       -0.2678
      5 C         140.7926  140.3633  157.9152 C.2     1  UNL1        0.2440
      6 O         140.4491  140.0876  156.4813 O.2     1  UNL1       -0.2731
      7 C         142.0087  139.5027  160.1346 C.3     1  UNL1        0.1373
      8 C         141.9281  137.5133  156.8027 C.2     1  UNL1        0.2409
      9 O         142.9642  137.7751  155.7502 O.2     1  UNL1       -0.2733
     10 N         140.7066  136.7091  156.4691 N.am    1  UNL1       -0.2985
     11 H         140.0266  136.5372  157.1599 H       1  UNL1        0.1498
     12 C         140.5213  136.1668  155.0829 C.3     1  UNL1        0.1271
     13 C         140.6571  135.2642  153.8926 C.3     1  UNL1        0.0290
     14 C         141.3816  134.9409  155.1656 C.3     1  UNL1        0.0270
     15 C         139.5965  137.2044  154.5187 C.2     1  UNL1        0.2564
     16 O         140.1171  138.2275  153.5531 O.2     1  UNL1       -0.2718
     17 N         138.1513  137.2189  154.9201 N.am    1  UNL1       -0.1875
     18 H         137.8097  136.5474  155.5538 H       1  UNL1        0.1762
     19 S         137.2266  138.2565  154.3559 S.O2    1  UNL1        0.0543
     20 O         137.5651  139.1757  155.4919 O.2     1  UNL1       -0.1545
     21 O         136.8882  137.3372  153.2199 O.2     1  UNL1       -0.1545
     22 C         136.3020  139.2941  153.7918 C.3     1  UNL1        0.1490
     23 C         135.1358  140.2228  153.9574 C.3     1  UNL1        0.0273
     24 C         135.8665  140.1625  152.6488 C.3     1  UNL1        0.0273
     25 C         142.2967  134.0464  155.9484 C.3     1  UNL1        0.0021
     26 C         143.4742  133.8712  156.8609 C.3     1  UNL1        0.0001
     27 C         142.7041  132.6725  156.3916 C.3     1  UNL1        0.0001
     28 O         143.3968  137.9961  161.8515 O.3     1  UNL1       -0.4621
     29 C         143.8093  141.3048  164.8735 C.ar    1  UNL1        0.1579
     30 C         144.8114  141.1720  163.7652 C.ar    1  UNL1        0.1388
     31 N         144.6738  140.0691  162.7579 N.ar    1  UNL1       -0.2069
     32 C         143.5343  139.0990  162.8589 C.ar    1  UNL1        0.2249
     33 C         142.5322  139.2317  163.9671 C.ar    1  UNL1        0.0570
     34 C         141.3926  138.2616  164.0681 C.ar    1  UNL1        0.0161
     35 C         140.3906  138.3944  165.1763 C.ar    1  UNL1        0.0578
     36 CL        139.2510  137.4242  165.2773 Cl      1  UNL1       -0.0822
     37 C         140.5281  139.4973  166.1836 C.ar    1  UNL1        0.0115
     38 C         141.6677  140.4674  166.0827 C.ar    1  UNL1        0.0041
     39 C         142.6697  140.3346  164.9745 C.ar    1  UNL1        0.0401
     40 C         144.4843  143.7438  165.4614 C.3     1  UNL1        0.2525
     41 O         143.9468  142.4077  165.8808 O.3     1  UNL1       -0.4699
     42 C         140.3371  141.6367  158.5640 C.3     1  UNL1        0.1512
     43 C         140.6834  142.9589  157.9461 C.3     1  UNL1        0.0270
     44 C         142.0527  143.5405  158.1374 C.3     1  UNL1        0.0021
     45 C         142.3991  144.8627  157.5195 C.3     1  UNL1        0.0001
     46 C         141.3761  145.6033  156.7102 C.3     1  UNL1        0.0000
     47 C         140.0068  145.0217  156.5188 C.3     1  UNL1        0.0001
     48 C         139.6604  143.6995  157.1368 C.3     1  UNL1        0.0021
     49 N         139.5352  141.5879  159.8307 N.am    1  UNL1       -0.2640
     50 C         138.1815  140.9419  159.8370 C.2     1  UNL1        0.4021
     51 O         137.6296  140.3447  158.5765 O.2     1  UNL1       -0.2264
     52 H         139.8974  141.9798  160.6580 H       1  UNL1        0.1532
     53 O         137.3795  140.8930  161.1037 O.3     1  UNL1       -0.4295
     54 C         137.9332  140.2046  162.3159 C.3     1  UNL1        0.2645
     55 C         138.0413  138.7087  162.3450 C.3     1  UNL1        0.0567
     56 C         138.3787  141.0119  163.4990 C.3     1  UNL1        0.4342
     57 F         138.8242  141.8192  164.6820 F       1  UNL1       -0.1664
     58 F         139.7973  140.9343  163.0178 F       1  UNL1       -0.1664
     59 F         136.9600  141.0895  163.9801 F       1  UNL1       -0.1664
@<TRIPOS>BOND
     1    40    41    1
     2    41    29    1
     3    29    30   ar
     4    30    31   ar
     5    31    32   ar
     6    32    28    1
     7     1    28    1
     8     1     2    1
     9     2     3    1
    10     3     8    1
    11     8     9    2
    12     8    10   am
    13    12    10    1
    14    12    15    1
    15    15    16    2
    16    15    17   am
    17    17    19    1
    18    19    20    2
    19    19    21    2
    20    19    22    1
    21    22    23    1
    22    23    24    1
    23    12    13    1
    24    13    14    1
    25    14    25    1
    26    25    26    1
    27    26    27    1
    28     3     4    1
    29     4     5   am
    30     5     6    2
    31     5    42    1
    32    42    49    1
    33    49    50   am
    34    50    51    2
    35    50    53    1
    36    53    54    1
    37    54    55    1
    38    54    56    1
    39    56    57    1
    40    56    58    1
    41    56    59    1
    42    42    43    1
    43    43    44    1
    44    44    45    1
    45    45    46    1
    46    46    47    1
    47    47    48    1
    48     4     7    1
    49    32    33   ar
    50    33    34   ar
    51    34    35   ar
    52    35    36    1
    53    35    37   ar
    54    37    38   ar
    55    38    39   ar
    56    39    29   ar
    57     7     1    1
    58    39    33   ar
    59    14    12    1
    60    27    25    1
    61    48    43    1
    62    24    22    1
    63    10    11    1
    64    17    18    1
    65    49    52    1
@<TRIPOS>MOLECULE
*****
 59 65 0 0 0
SMALL
GASTEIGER

@<TRIPOS>ATOM
      1 C         139.2707  140.2218  161.0154 C.3     1  UNL1        0.1894
      2 C         138.3495  140.1386  159.8345 C.3     1  UNL1        0.0746
      3 C         138.7796  141.1733  158.8373 C.3     1  UNL1        0.1555
      4 N         139.9666  141.8960  159.4020 N.am    1  UNL1       -0.2678
      5 C         140.7181  143.0111  158.7373 C.2     1  UNL1        0.2440
      6 O         140.2961  143.4966  157.3822 O.2     1  UNL1       -0.2731
      7 C         140.2700  141.3080  160.7482 C.3     1  UNL1        0.1373
      8 C         138.1358  141.4387  157.5088 C.2     1  UNL1        0.2409
      9 O         137.3742  142.7114  157.2853 O.2     1  UNL1       -0.2733
     10 N         138.2536  140.4313  156.4036 N.am    1  UNL1       -0.2985
     11 H         138.7535  139.5960  156.5503 H       1  UNL1        0.1498
     12 C         137.6098  140.6967  155.0751 C.3     1  UNL1        0.1271
     13 C         137.4388  141.1627  153.6596 C.3     1  UNL1        0.0290
     14 C         138.7477  141.3666  154.3634 C.3     1  UNL1        0.0270
     15 C         136.2483  140.1190  155.3253 C.2     1  UNL1        0.2564
     16 O         135.9403  138.7137  154.9008 O.2     1  UNL1       -0.2718
     17 N         135.1949  140.9466  156.0001 N.am    1  UNL1       -0.1875
     18 H         135.3970  141.8690  156.2787 H       1  UNL1        0.1762
     19 S         133.8334  140.3689  156.2503 S.O2    1  UNL1        0.0543
     20 O         133.3307  141.0074  154.9896 O.2     1  UNL1       -0.1545
     21 O         134.3361  139.7305  157.5112 O.2     1  UNL1       -0.1545
     22 C         132.4720  139.7912  156.5006 C.3     1  UNL1        0.1490
     23 C         131.0040  139.9825  156.7420 C.3     1  UNL1        0.0273
     24 C         131.5819  138.5992  156.6926 C.3     1  UNL1        0.0273
     25 C         140.1604  141.8710  154.3589 C.3     1  UNL1        0.0021
     26 C         141.6128  141.6689  154.6741 C.3     1  UNL1        0.0001
     27 C         141.1546  142.9467  154.0359 C.3     1  UNL1        0.0001
     28 O         139.2041  139.3686  162.2473 O.3     1  UNL1       -0.4621
     29 C         142.0511  140.1081  165.6529 C.ar    1  UNL1        0.1579
     30 C         142.1895  138.8720  164.8146 C.ar    1  UNL1        0.1388
     31 N         141.2405  138.6255  163.6794 N.ar    1  UNL1       -0.2069
     32 C         140.1531  139.6151  163.3825 C.ar    1  UNL1        0.2249
     33 C         140.0147  140.8514  164.2208 C.ar    1  UNL1        0.0570
     34 C         138.9274  141.8410  163.9239 C.ar    1  UNL1        0.0161
     35 C         138.7890  143.0772  164.7622 C.ar    1  UNL1        0.0578
     36 CL        137.7016  144.0669  164.4653 Cl      1  UNL1       -0.0822
     37 C         139.7380  143.3237  165.8974 C.ar    1  UNL1        0.0115
     38 C         140.8253  142.3340  166.1943 C.ar    1  UNL1        0.0041
     39 C         140.9637  141.0979  165.3560 C.ar    1  UNL1        0.0401
     40 C         142.7058  139.7924  168.1472 C.3     1  UNL1        0.2525
     41 O         143.0001  140.3546  166.7881 O.3     1  UNL1       -0.4699
     42 C         141.8915  143.6407  159.4276 C.3     1  UNL1        0.1512
     43 C         141.7237  144.2474  160.7892 C.3     1  UNL1        0.0270
     44 C         142.7192  143.9493  161.8709 C.3     1  UNL1        0.0021
     45 C         142.5514  144.5560  163.2325 C.3     1  UNL1        0.0001
     46 C         141.3881  145.4608  163.5123 C.3     1  UNL1        0.0000
     47 C         140.3927  145.7588  162.4305 C.3     1  UNL1        0.0001
     48 C         140.5605  145.1522  161.0690 C.3     1  UNL1        0.0021
     49 N         143.2328  143.6636  158.7564 N.am    1  UNL1       -0.2640
     50 C         144.1881  142.5236  158.9504 C.2     1  UNL1        0.4021
     51 O         143.8021  141.3607  159.8157 O.2     1  UNL1       -0.2264
     52 H         143.4860  144.4269  158.1885 H       1  UNL1        0.1532
     53 O         145.5294  142.5464  158.2793 O.3     1  UNL1       -0.4295
     54 C         145.7302  141.8247  156.9797 C.3     1  UNL1        0.2645
     55 C         144.7119  140.8285  156.5100 C.3     1  UNL1        0.0567
     56 C         146.9493  142.0992  156.1500 C.3     1  UNL1        0.4342
     57 F         148.1683  142.3737  155.3203 F       1  UNL1       -0.1664
     58 F         147.3260  143.2191  157.0740 F       1  UNL1       -0.1664
     59 F         146.5724  140.9793  155.2260 F       1  UNL1       -0.1664
@<TRIPOS>BOND
     1    40    41    1
     2    41    29    1
     3    29    30   ar
     4    30    31   ar
     5    31    32   ar
     6    32    28    1
     7     1    28    1
     8     1     2    1
     9     2     3    1
    10     3     8    1
    11     8     9    2
    12     8    10   am
    13    12    10    1
    14    12    15    1
    15    15    16    2
    16    15    17   am
    17    17    19    1
    18    19    20    2
    19    19    21    2
    20    19    22    1
    21    22    23    1
    22    23    24    1
    23    12    13    1
    24    13    14    1
    25    14    25    1
    26    25    26    1
    27    26    27    1
    28     3     4    1
    29     4     5   am
    30     5     6    2
    31     5    42    1
    32    42    49    1
    33    49    50   am
    34    50    51    2
    35    50    53    1
    36    53    54    1
    37    54    55    1
    38    54    56    1
    39    56    57    1
    40    56    58    1
    41    56    59    1
    42    42    43    1
    43    43    44    1
    44    44    45    1
    45    45    46    1
    46    46    47    1
    47    47    48    1
    48     4     7    1
    49    32    33   ar
    50    33    34   ar
    51    34    35   ar
    52    35    36    1
    53    35    37   ar
    54    37    38   ar
    55    38    39   ar
    56    39    29   ar
    57     7     1    1
    58    39    33   ar
    59    14    12    1
    60    27    25    1
    61    48    43    1
    62    24    22    1
    63    10    11    1
    64    17    18    1
    65    49    52    1
@<TRIPOS>MOLECULE
*****
 59 65 0 0 0
SMALL
GASTEIGER

@<TRIPOS>ATOM
      1 C         138.4949  140.3246  160.7418 C.3     1  UNL1        0.1894
      2 C         137.5003  140.1665  159.6302 C.3     1  UNL1        0.0746
      3 C         138.1443  140.6402  158.3610 C.3     1  UNL1        0.1555
      4 N         139.5371  141.0910  158.6883 N.am    1  UNL1       -0.2678
      5 C         140.5375  141.6405  157.7150 C.2     1  UNL1        0.2440
      6 O         140.1764  141.7783  156.2656 O.2     1  UNL1       -0.2731
      7 C         139.7537  140.8960  160.1597 C.3     1  UNL1        0.1373
      8 C         137.5075  140.6596  157.0030 C.2     1  UNL1        0.2409
      9 O         137.8239  139.5801  156.0108 O.2     1  UNL1       -0.2733
     10 N         136.5543  141.7585  156.6373 N.am    1  UNL1       -0.2985
     11 H         136.3467  142.4670  157.2885 H       1  UNL1        0.1498
     12 C         135.9175  141.7779  155.2793 C.3     1  UNL1        0.1271
     13 C         135.6624  142.1439  153.8472 C.3     1  UNL1        0.0290
     14 C         136.7955  142.7828  154.5942 C.3     1  UNL1        0.0270
     15 C         134.8183  140.7797  155.4928 C.2     1  UNL1        0.2564
     16 O         134.7583  139.5390  154.6519 O.2     1  UNL1       -0.2718
     17 N         133.7792  141.0223  156.5470 N.am    1  UNL1       -0.1875
     18 H         133.8186  141.8366  157.0989 H       1  UNL1        0.1762
     19 S         132.6801  140.0241  156.7604 S.O2    1  UNL1        0.0543
     20 O         133.5864  139.2141  157.6393 O.2     1  UNL1       -0.1545
     21 O         131.7738  140.8342  155.8815 O.2     1  UNL1       -0.1545
     22 C         131.5810  139.0260  156.9739 C.3     1  UNL1        0.1490
     23 C         130.5738  138.3757  157.8752 C.3     1  UNL1        0.0273
     24 C         130.6846  137.9473  156.4420 C.3     1  UNL1        0.0273
     25 C         137.9566  143.7318  154.6300 C.3     1  UNL1        0.0021
     26 C         138.6803  144.8751  155.2774 C.3     1  UNL1        0.0001
     27 C         139.2439  144.2322  154.0448 C.3     1  UNL1        0.0001
     28 O         138.2702  139.9731  162.1826 O.3     1  UNL1       -0.4621
     29 C         141.7313  139.9462  165.0583 C.ar    1  UNL1        0.1579
     30 C         141.5430  138.8072  164.1007 C.ar    1  UNL1        0.1388
     31 N         140.3893  138.8161  163.1421 N.ar    1  UNL1       -0.2069
     32 C         139.4239  139.9641  163.1411 C.ar    1  UNL1        0.2249
     33 C         139.6122  141.1032  164.0988 C.ar    1  UNL1        0.0570
     34 C         138.6468  142.2512  164.0978 C.ar    1  UNL1        0.0161
     35 C         138.8351  143.3903  165.0554 C.ar    1  UNL1        0.0578
     36 CL        137.8697  144.5384  165.0545 Cl      1  UNL1       -0.0822
     37 C         139.9888  143.3813  166.0140 C.ar    1  UNL1        0.0115
     38 C         140.9542  142.2333  166.0150 C.ar    1  UNL1        0.0041
     39 C         140.7659  141.0943  165.0574 C.ar    1  UNL1        0.0401
     40 C         142.7611  139.2286  167.3331 C.3     1  UNL1        0.2525
     41 O         142.8850  139.9372  166.0169 O.3     1  UNL1       -0.4699
     42 C         141.8991  142.0522  158.1910 C.3     1  UNL1        0.1512
     43 C         143.1219  141.5937  157.4532 C.3     1  UNL1        0.0270
     44 C         144.3226  142.4881  157.3626 C.3     1  UNL1        0.0021
     45 C         145.5455  142.0296  156.6248 C.3     1  UNL1        0.0001
     46 C         145.5676  140.6767  155.9774 C.3     1  UNL1        0.0000
     47 C         144.3669  139.7822  156.0679 C.3     1  UNL1        0.0001
     48 C         143.1441  140.2407  156.8058 C.3     1  UNL1        0.0021
     49 N         142.0378  142.9223  159.4049 N.am    1  UNL1       -0.2640
     50 C         141.7159  144.3849  159.3200 C.2     1  UNL1        0.4021
     51 O         141.2554  144.9773  158.0212 O.2     1  UNL1       -0.2264
     52 H         142.3400  142.5335  160.2574 H       1  UNL1        0.1532
     53 O         141.8546  145.2552  160.5339 O.3     1  UNL1       -0.4295
     54 C         141.1393  144.8936  161.8017 C.3     1  UNL1        0.2645
     55 C         139.6403  144.9202  161.8509 C.3     1  UNL1        0.0567
     56 C         141.9229  144.5053  163.0204 C.3     1  UNL1        0.4342
     57 F         142.7065  144.1171  164.2391 F       1  UNL1       -0.1664
     58 F         141.9369  145.9371  163.4675 F       1  UNL1       -0.1664
     59 F         141.9088  143.0736  162.5733 F       1  UNL1       -0.1664
@<TRIPOS>BOND
     1    40    41    1
     2    41    29    1
     3    29    30   ar
     4    30    31   ar
     5    31    32   ar
     6    32    28    1
     7     1    28    1
     8     1     2    1
     9     2     3    1
    10     3     8    1
    11     8     9    2
    12     8    10   am
    13    12    10    1
    14    12    15    1
    15    15    16    2
    16    15    17   am
    17    17    19    1
    18    19    20    2
    19    19    21    2
    20    19    22    1
    21    22    23    1
    22    23    24    1
    23    12    13    1
    24    13    14    1
    25    14    25    1
    26    25    26    1
    27    26    27    1
    28     3     4    1
    29     4     5   am
    30     5     6    2
    31     5    42    1
    32    42    49    1
    33    49    50   am
    34    50    51    2
    35    50    53    1
    36    53    54    1
    37    54    55    1
    38    54    56    1
    39    56    57    1
    40    56    58    1
    41    56    59    1
    42    42    43    1
    43    43    44    1
    44    44    45    1
    45    45    46    1
    46    46    47    1
    47    47    48    1
    48     4     7    1
    49    32    33   ar
    50    33    34   ar
    51    34    35   ar
    52    35    36    1
    53    35    37   ar
    54    37    38   ar
    55    38    39   ar
    56    39    29   ar
    57     7     1    1
    58    39    33   ar
    59    14    12    1
    60    27    25    1
    61    48    43    1
    62    24    22    1
    63    10    11    1
    64    17    18    1
    65    49    52    1
@<TRIPOS>MOLECULE
*****
 59 65 0 0 0
SMALL
GASTEIGER

@<TRIPOS>ATOM
      1 C         142.4333  139.1742  159.5971 C.3     1  UNL1        0.1894
      2 C         141.9917  138.3436  158.4288 C.3     1  UNL1        0.0746
      3 C         140.6290  138.8140  158.0143 C.3     1  UNL1        0.1555
      4 N         140.2285  139.9354  158.9265 N.am    1  UNL1       -0.2678
      5 C         138.9391  140.6999  158.8704 C.2     1  UNL1        0.2440
      6 O         137.9120  140.3628  157.8305 O.2     1  UNL1       -0.2731
      7 C         141.3436  140.1580  159.9048 C.3     1  UNL1        0.1373
      8 C         139.8106  138.2603  156.8858 C.2     1  UNL1        0.2409
      9 O         139.0301  136.9937  157.0764 O.2     1  UNL1       -0.2733
     10 N         139.7728  138.9732  155.5665 N.am    1  UNL1       -0.2985
     11 H         140.2851  139.8046  155.4414 H       1  UNL1        0.1498
     12 C         138.9543  138.4196  154.4380 C.3     1  UNL1        0.1271
     13 C         138.5451  137.5441  153.2908 C.3     1  UNL1        0.0290
     14 C         139.8485  137.3008  153.9922 C.3     1  UNL1        0.0270
     15 C         137.7759  139.3461  154.4918 C.2     1  UNL1        0.2564
     16 O         137.9838  140.8294  154.4103 O.2     1  UNL1       -0.2718
     17 N         136.3896  138.7893  154.6271 N.am    1  UNL1       -0.1875
     18 H         136.2532  137.8158  154.6806 H       1  UNL1        0.1762
     19 S         135.2113  139.7159  154.6809 S.O2    1  UNL1        0.0543
     20 O         135.1896  139.6015  156.1763 O.2     1  UNL1       -0.1545
     21 O         135.2329  139.8302  153.1854 O.2     1  UNL1       -0.1545
     22 C         134.0329  140.6424  154.7347 C.3     1  UNL1        0.1490
     23 C         133.1496  141.6603  154.0763 C.3     1  UNL1        0.0273
     24 C         132.8751  141.2292  155.4865 C.3     1  UNL1        0.0273
     25 C         141.1173  136.5143  154.1399 C.3     1  UNL1        0.0021
     26 C         142.1937  135.9367  155.0104 C.3     1  UNL1        0.0001
     27 C         142.2384  135.7299  153.5253 C.3     1  UNL1        0.0001
     28 O         143.7359  139.0439  160.3293 O.3     1  UNL1       -0.4621
     29 C         144.6307  141.7324  163.8253 C.ar    1  UNL1        0.1579
     30 C         145.1977  142.0471  162.4727 C.ar    1  UNL1        0.1388
     31 N         144.8995  141.1509  161.3074 N.ar    1  UNL1       -0.2069
     32 C         144.0342  139.9401  161.4946 C.ar    1  UNL1        0.2249
     33 C         143.4671  139.6253  162.8472 C.ar    1  UNL1        0.0570
     34 C         142.6018  138.4145  163.0345 C.ar    1  UNL1        0.0161
     35 C         142.0348  138.0998  164.3870 C.ar    1  UNL1        0.0578
     36 CL        141.1695  136.8889  164.5743 Cl      1  UNL1       -0.0822
     37 C         142.3331  138.9960  165.5523 C.ar    1  UNL1        0.0115
     38 C         143.1984  140.2068  165.3651 C.ar    1  UNL1        0.0041
     39 C         143.7654  140.5215  164.0126 C.ar    1  UNL1        0.0401
     40 C         144.3226  143.9989  165.0574 C.3     1  UNL1        0.2525
     41 O         144.9290  142.6286  164.9906 O.3     1  UNL1       -0.4699
     42 C         138.6769  141.8014  159.8541 C.3     1  UNL1        0.1512
     43 C         138.3751  141.4721  161.2861 C.3     1  UNL1        0.0270
     44 C         138.0242  142.5668  162.2496 C.3     1  UNL1        0.0021
     45 C         137.7225  142.2375  163.6816 C.3     1  UNL1        0.0001
     46 C         137.7717  140.8134  164.1500 C.3     1  UNL1        0.0000
     47 C         138.1226  139.7186  163.1865 C.3     1  UNL1        0.0001
     48 C         138.4243  140.0480  161.7546 C.3     1  UNL1        0.0021
     49 N         138.7164  143.2324  159.4059 N.am    1  UNL1       -0.2640
     50 C         139.9451  144.0592  159.6440 C.2     1  UNL1        0.4021
     51 O         141.1342  143.4551  160.3304 O.2     1  UNL1       -0.2264
     52 H         137.9359  143.6288  158.9554 H       1  UNL1        0.1532
     53 O         139.9847  145.4901  159.1959 O.3     1  UNL1       -0.4295
     54 C         140.5151  145.8358  157.8360 C.3     1  UNL1        0.2645
     55 C         141.9951  145.9221  157.6079 C.3     1  UNL1        0.0567
     56 C         139.5654  146.0952  156.7043 C.3     1  UNL1        0.4342
     57 F         138.6157  146.3546  155.5726 F       1  UNL1       -0.1664
     58 F         139.8819  144.7463  156.1295 F       1  UNL1       -0.1664
     59 F         139.2489  147.4441  157.2791 F       1  UNL1       -0.1664
@<TRIPOS>BOND
     1    40    41    1
     2    41    29    1
     3    29    30   ar
     4    30    31   ar
     5    31    32   ar
     6    32    28    1
     7     1    28    1
     8     1     2    1
     9     2     3    1
    10     3     8    1
    11     8     9    2
    12     8    10   am
    13    12    10    1
    14    12    15    1
    15    15    16    2
    16    15    17   am
    17    17    19    1
    18    19    20    2
    19    19    21    2
    20    19    22    1
    21    22    23    1
    22    23    24    1
    23    12    13    1
    24    13    14    1
    25    14    25    1
    26    25    26    1
    27    26    27    1
    28     3     4    1
    29     4     5   am
    30     5     6    2
    31     5    42    1
    32    42    49    1
    33    49    50   am
    34    50    51    2
    35    50    53    1
    36    53    54    1
    37    54    55    1
    38    54    56    1
    39    56    57    1
    40    56    58    1
    41    56    59    1
    42    42    43    1
    43    43    44    1
    44    44    45    1
    45    45    46    1
    46    46    47    1
    47    47    48    1
    48     4     7    1
    49    32    33   ar
    50    33    34   ar
    51    34    35   ar
    52    35    36    1
    53    35    37   ar
    54    37    38   ar
    55    38    39   ar
    56    39    29   ar
    57     7     1    1
    58    39    33   ar
    59    14    12    1
    60    27    25    1
    61    48    43    1
    62    24    22    1
    63    10    11    1
    64    17    18    1
    65    49    52    1
@<TRIPOS>MOLECULE
*****
 59 65 0 0 0
SMALL
GASTEIGER

@<TRIPOS>ATOM
      1 C         139.8166  143.3441  159.3925 C.3     1  UNL1        0.1894
      2 C         139.8433  143.9361  158.0145 C.3     1  UNL1        0.0746
      3 C         140.9829  143.3130  157.2643 C.3     1  UNL1        0.1555
      4 N         141.6606  142.3358  158.1786 N.am    1  UNL1       -0.2678
      5 C         142.8502  141.4882  157.8375 C.2     1  UNL1        0.2440
      6 O         143.4681  141.5771  156.4736 O.2     1  UNL1       -0.2731
      7 C         140.9397  142.3551  159.4939 C.3     1  UNL1        0.1373
      8 C         141.3759  143.6141  155.8483 C.2     1  UNL1        0.2409
      9 O         140.6298  142.9802  154.7120 O.2     1  UNL1       -0.2733
     10 N         142.5150  144.5491  155.5688 N.am    1  UNL1       -0.2985
     11 H         143.0047  144.9652  156.3147 H       1  UNL1        0.1498
     12 C         142.9079  144.8502  154.1529 C.3     1  UNL1        0.1271
     13 C         142.8941  145.4725  152.7881 C.3     1  UNL1        0.0290
     14 C         141.8728  145.8797  153.8085 C.3     1  UNL1        0.0270
     15 C         144.0796  143.9253  154.0054 C.2     1  UNL1        0.2564
     16 O         143.8715  142.5240  153.5124 O.2     1  UNL1       -0.2718
     17 N         145.4594  144.4017  154.3509 N.am    1  UNL1       -0.1875
     18 H         145.5960  145.3214  154.6745 H       1  UNL1        0.1762
     19 S         146.6310  143.4767  154.2035 S.O2    1  UNL1        0.0543
     20 O         146.8751  144.0062  152.8215 O.2     1  UNL1       -0.1545
     21 O         146.3869  142.9472  155.5856 O.2     1  UNL1       -0.1545
     22 C         147.8026  142.5518  154.0560 C.3     1  UNL1        0.1490
     23 C         148.6778  141.6912  153.1939 C.3     1  UNL1        0.0273
     24 C         148.9568  141.8104  154.6629 C.3     1  UNL1        0.0273
     25 C         140.6855  146.7092  154.1989 C.3     1  UNL1        0.0021
     26 C         139.3702  146.8420  154.9075 C.3     1  UNL1        0.0001
     27 C         139.9445  148.0130  154.1665 C.3     1  UNL1        0.0001
     28 O         138.8385  143.6819  160.4785 O.3     1  UNL1       -0.4621
     29 C         138.4051  140.9664  164.0405 C.ar    1  UNL1        0.1579
     30 C         137.4842  140.8157  162.8661 C.ar    1  UNL1        0.1388
     31 N         137.6287  141.7209  161.6788 N.ar    1  UNL1       -0.2069
     32 C         138.6940  142.7767  161.6658 C.ar    1  UNL1        0.2249
     33 C         139.6150  142.9275  162.8403 C.ar    1  UNL1        0.0570
     34 C         140.6803  143.9833  162.8273 C.ar    1  UNL1        0.0161
     35 C         141.6012  144.1340  164.0017 C.ar    1  UNL1        0.0578
     36 CL        142.6666  145.1899  163.9888 Cl      1  UNL1       -0.0822
     37 C         141.4567  143.2288  165.1891 C.ar    1  UNL1        0.0115
     38 C         140.3913  142.1730  165.2020 C.ar    1  UNL1        0.0041
     39 C         139.4705  142.0223  164.0276 C.ar    1  UNL1        0.0401
     40 C         138.7356  138.6407  165.1502 C.3     1  UNL1        0.2525
     41 O         138.2606  140.0613  165.2279 O.3     1  UNL1       -0.4699
     42 C         143.4219  140.5517  158.8603 C.3     1  UNL1        0.1512
     43 C         143.7344  141.0487  160.2406 C.3     1  UNL1        0.0270
     44 C         143.3426  140.2341  161.4377 C.3     1  UNL1        0.0021
     45 C         143.6551  140.7311  162.8180 C.3     1  UNL1        0.0001
     46 C         144.3594  142.0428  163.0013 C.3     1  UNL1        0.0000
     47 C         144.7512  142.8574  161.8043 C.3     1  UNL1        0.0001
     48 C         144.4387  142.3603  160.4240 C.3     1  UNL1        0.0021
     49 N         143.6811  139.1182  158.5027 N.am    1  UNL1       -0.2640
     50 C         142.5439  138.1417  158.4469 C.2     1  UNL1        0.4021
     51 O         141.1474  138.5988  158.7487 O.2     1  UNL1       -0.2264
     52 H         144.5977  138.8182  158.3047 H       1  UNL1        0.1532
     53 O         142.8029  136.7082  158.0894 O.3     1  UNL1       -0.4295
     54 C         143.0228  136.3203  156.6572 C.3     1  UNL1        0.2645
     55 C         142.5670  137.2302  155.5553 C.3     1  UNL1        0.0567
     56 C         143.6986  135.0224  156.3269 C.3     1  UNL1        0.4342
     57 F         144.3742  133.7247  155.9967 F       1  UNL1       -0.1664
     58 F         142.9201  134.3408  157.4130 F       1  UNL1       -0.1664
     59 F         144.4769  135.7042  155.2409 F       1  UNL1       -0.1664
@<TRIPOS>BOND
     1    40    41    1
     2    41    29    1
     3    29    30   ar
     4    30    31   ar
     5    31    32   ar
     6    32    28    1
     7     1    28    1
     8     1     2    1
     9     2     3    1
    10     3     8    1
    11     8     9    2
    12     8    10   am
    13    12    10    1
    14    12    15    1
    15    15    16    2
    16    15    17   am
    17    17    19    1
    18    19    20    2
    19    19    21    2
    20    19    22    1
    21    22    23    1
    22    23    24    1
    23    12    13    1
    24    13    14    1
    25    14    25    1
    26    25    26    1
    27    26    27    1
    28     3     4    1
    29     4     5   am
    30     5     6    2
    31     5    42    1
    32    42    49    1
    33    49    50   am
    34    50    51    2
    35    50    53    1
    36    53    54    1
    37    54    55    1
    38    54    56    1
    39    56    57    1
    40    56    58    1
    41    56    59    1
    42    42    43    1
    43    43    44    1
    44    44    45    1
    45    45    46    1
    46    46    47    1
    47    47    48    1
    48     4     7    1
    49    32    33   ar
    50    33    34   ar
    51    34    35   ar
    52    35    36    1
    53    35    37   ar
    54    37    38   ar
    55    38    39   ar
    56    39    29   ar
    57     7     1    1
    58    39    33   ar
    59    14    12    1
    60    27    25    1
    61    48    43    1
    62    24    22    1
    63    10    11    1
    64    17    18    1
    65    49    52    1
@<TRIPOS>MOLECULE
*****
 59 65 0 0 0
SMALL
GASTEIGER

@<TRIPOS>ATOM
      1 C         142.9408  138.5001  160.9905 C.3     1  UNL1        0.1894
      2 C         143.1222  137.5663  159.8307 C.3     1  UNL1        0.0746
      3 C         142.4176  138.1569  158.6455 C.3     1  UNL1        0.1555
      4 N         141.8006  139.4557  159.0729 N.am    1  UNL1       -0.2678
      5 C         141.0007  140.3800  158.2035 C.2     1  UNL1        0.2440
      6 O         140.7579  140.0336  156.7645 O.2     1  UNL1       -0.2731
      7 C         142.1240  139.6678  160.5222 C.3     1  UNL1        0.1373
      8 C         142.3430  137.5545  157.2738 C.2     1  UNL1        0.2409
      9 O         143.4862  137.7229  156.3175 O.2     1  UNL1       -0.2733
     10 N         141.1251  136.7836  156.8585 N.am    1  UNL1       -0.2985
     11 H         140.3747  136.6730  157.4861 H       1  UNL1        0.1498
     12 C         141.0505  136.1812  155.4868 C.3     1  UNL1        0.1271
     13 C         141.2974  135.2398  154.3454 C.3     1  UNL1        0.0290
     14 C         141.9504  134.9958  155.6735 C.3     1  UNL1        0.0270
     15 C         140.1246  137.1574  154.8236 C.2     1  UNL1        0.2564
     16 O         140.6742  138.2027  153.8988 O.2     1  UNL1       -0.2718
     17 N         138.6492  137.0882  155.0852 N.am    1  UNL1       -0.1875
     18 H         138.2885  136.4022  155.6921 H       1  UNL1        0.1762
     19 S         137.7234  138.0644  154.4220 S.O2    1  UNL1        0.0543
     20 O         137.5595  137.1233  153.2655 O.2     1  UNL1       -0.1545
     21 O         137.8873  139.0056  155.5785 O.2     1  UNL1       -0.1545
     22 C         136.7975  139.0406  153.7588 C.3     1  UNL1        0.1490
     23 C         136.4764  139.9535  152.6128 C.3     1  UNL1        0.0273
     24 C         135.5150  139.8185  153.7562 C.3     1  UNL1        0.0273
     25 C         142.8471  134.1706  156.5483 C.3     1  UNL1        0.0021
     26 C         143.5724  133.9734  157.8463 C.3     1  UNL1        0.0001
     27 C         143.6747  132.9385  156.7653 C.3     1  UNL1        0.0001
     28 O         143.4812  138.3012  162.3755 O.3     1  UNL1       -0.4621
     29 C         141.1185  139.7102  165.9367 C.ar    1  UNL1        0.1579
     30 C         140.9975  138.2895  165.4708 C.ar    1  UNL1        0.1388
     31 N         141.7851  137.8199  164.2838 N.ar    1  UNL1       -0.2069
     32 C         142.6936  138.7708  163.5626 C.ar    1  UNL1        0.2249
     33 C         142.8147  140.1916  164.0285 C.ar    1  UNL1        0.0570
     34 C         143.7232  141.1425  163.3073 C.ar    1  UNL1        0.0161
     35 C         143.8442  142.5632  163.7732 C.ar    1  UNL1        0.0578
     36 CL        144.7528  143.5142  163.0520 Cl      1  UNL1       -0.0822
     37 C         143.0566  143.0328  164.9603 C.ar    1  UNL1        0.0115
     38 C         142.1481  142.0819  165.6814 C.ar    1  UNL1        0.0041
     39 C         142.0271  140.6612  165.2156 C.ar    1  UNL1        0.0401
     40 C         140.8804  139.9989  168.5077 C.3     1  UNL1        0.2525
     41 O         140.3309  140.1799  167.1238 O.3     1  UNL1       -0.4699
     42 C         140.4436  141.6508  158.7733 C.3     1  UNL1        0.1512
     43 C         140.8077  142.9706  158.1603 C.3     1  UNL1        0.0270
     44 C         142.0501  143.0941  157.3289 C.3     1  UNL1        0.0021
     45 C         142.4142  144.4138  156.7159 C.3     1  UNL1        0.0001
     46 C         141.5360  145.6100  156.9343 C.3     1  UNL1        0.0000
     47 C         140.2936  145.4865  157.7657 C.3     1  UNL1        0.0001
     48 C         139.9295  144.1668  158.3787 C.3     1  UNL1        0.0021
     49 N         139.5224  141.6019  159.9561 N.am    1  UNL1       -0.2640
     50 C         138.2183  140.8670  159.8610 C.2     1  UNL1        0.4021
     51 O         137.8353  140.1809  158.5832 O.2     1  UNL1       -0.2264
     52 H         139.7737  142.0522  160.7947 H       1  UNL1        0.1532
     53 O         137.2969  140.8180  161.0438 O.3     1  UNL1       -0.4295
     54 C         137.7286  140.1260  162.3026 C.3     1  UNL1        0.2645
     55 C         138.1258  138.6800  162.2653 C.3     1  UNL1        0.0567
     56 C         137.7630  140.8800  163.5989 C.3     1  UNL1        0.4342
     57 F         137.7975  141.6339  164.8951 F       1  UNL1       -0.1664
     58 F         138.2834  139.6579  164.2959 F       1  UNL1       -0.1664
     59 F         137.2426  142.1020  162.9019 F       1  UNL1       -0.1664
@<TRIPOS>BOND
     1    40    41    1
     2    41    29    1
     3    29    30   ar
     4    30    31   ar
     5    31    32   ar
     6    32    28    1
     7     1    28    1
     8     1     2    1
     9     2     3    1
    10     3     8    1
    11     8     9    2
    12     8    10   am
    13    12    10    1
    14    12    15    1
    15    15    16    2
    16    15    17   am
    17    17    19    1
    18    19    20    2
    19    19    21    2
    20    19    22    1
    21    22    23    1
    22    23    24    1
    23    12    13    1
    24    13    14    1
    25    14    25    1
    26    25    26    1
    27    26    27    1
    28     3     4    1
    29     4     5   am
    30     5     6    2
    31     5    42    1
    32    42    49    1
    33    49    50   am
    34    50    51    2
    35    50    53    1
    36    53    54    1
    37    54    55    1
    38    54    56    1
    39    56    57    1
    40    56    58    1
    41    56    59    1
    42    42    43    1
    43    43    44    1
    44    44    45    1
    45    45    46    1
    46    46    47    1
    47    47    48    1
    48     4     7    1
    49    32    33   ar
    50    33    34   ar
    51    34    35   ar
    52    35    36    1
    53    35    37   ar
    54    37    38   ar
    55    38    39   ar
    56    39    29   ar
    57     7     1    1
    58    39    33   ar
    59    14    12    1
    60    27    25    1
    61    48    43    1
    62    24    22    1
    63    10    11    1
    64    17    18    1
    65    49    52    1
@<TRIPOS>MOLECULE
*****
 59 65 0 0 0
SMALL
GASTEIGER

@<TRIPOS>ATOM
      1 C         138.0910  140.0615  161.3292 C.3     1  UNL1        0.1894
      2 C         137.2922  139.9220  160.0673 C.3     1  UNL1        0.0746
      3 C         138.0335  140.6253  158.9692 C.3     1  UNL1        0.1555
      4 N         139.2906  141.1995  159.5525 N.am    1  UNL1       -0.2678
      5 C         140.3297  141.9843  158.8079 C.2     1  UNL1        0.2440
      6 O         140.1574  142.2559  157.3428 O.2     1  UNL1       -0.2731
      7 C         139.3261  140.8510  161.0110 C.3     1  UNL1        0.1373
      8 C         137.5948  140.7351  157.5390 C.2     1  UNL1        0.2409
      9 O         138.1320  139.7804  156.5143 O.2     1  UNL1       -0.2733
     10 N         136.6190  141.7996  157.1334 N.am    1  UNL1       -0.2985
     11 H         136.2664  142.4263  157.8059 H       1  UNL1        0.1498
     12 C         136.1803  141.9095  155.7032 C.3     1  UNL1        0.1271
     13 C         135.3914  141.6763  154.4490 C.3     1  UNL1        0.0290
     14 C         135.0192  140.9599  155.7132 C.3     1  UNL1        0.0270
     15 C         137.1891  142.8972  155.1965 C.2     1  UNL1        0.2564
     16 O         138.1111  142.5193  154.0753 O.2     1  UNL1       -0.2718
     17 N         137.2759  144.2629  155.8109 N.am    1  UNL1       -0.1875
     18 H         136.6707  144.5109  156.5468 H       1  UNL1        0.1762
     19 S         138.2846  145.2506  155.3042 S.O2    1  UNL1        0.0543
     20 O         137.3124  145.7060  154.2567 O.2     1  UNL1       -0.1545
     21 O         139.2568  144.7951  156.3518 O.2     1  UNL1       -0.1545
     22 C         139.2933  146.2383  154.7975 C.3     1  UNL1        0.1490
     23 C         140.5290  146.5415  154.0031 C.3     1  UNL1        0.0273
     24 C         139.8048  147.6459  154.7142 C.3     1  UNL1        0.0273
     25 C         134.1340  139.9980  156.4490 C.3     1  UNL1        0.0021
     26 C         133.2002  138.8242  156.4392 C.3     1  UNL1        0.0001
     27 C         133.5347  139.5058  157.7330 C.3     1  UNL1        0.0001
     28 O         137.7200  139.5086  162.6732 O.3     1  UNL1       -0.4621
     29 C         140.7890  139.3338  165.9596 C.ar    1  UNL1        0.1579
     30 C         140.4457  138.0946  165.1874 C.ar    1  UNL1        0.1388
     31 N         139.4227  138.1529  164.0919 N.ar    1  UNL1       -0.2069
     32 C         138.7430  139.4504  163.7687 C.ar    1  UNL1        0.2249
     33 C         139.0863  140.6897  164.5410 C.ar    1  UNL1        0.0570
     34 C         138.4067  141.9872  164.2177 C.ar    1  UNL1        0.0161
     35 C         138.7500  143.2264  164.9899 C.ar    1  UNL1        0.0578
     36 CL        138.0703  144.5240  164.6667 Cl      1  UNL1       -0.0822
     37 C         139.7730  143.1681  166.0854 C.ar    1  UNL1        0.0115
     38 C         140.4527  141.8706  166.4086 C.ar    1  UNL1        0.0041
     39 C         140.1094  140.6314  165.6364 C.ar    1  UNL1        0.0401
     40 C         143.2089  138.8200  166.7533 C.3     1  UNL1        0.2525
     41 O         141.8121  139.2756  167.0551 O.3     1  UNL1       -0.4699
     42 C         141.5410  142.4975  159.5284 C.3     1  UNL1        0.1512
     43 C         141.3830  143.4450  160.6806 C.3     1  UNL1        0.0270
     44 C         140.5250  144.6667  160.5347 C.3     1  UNL1        0.0021
     45 C         140.3670  145.6141  161.6869 C.3     1  UNL1        0.0001
     46 C         141.0670  145.3398  162.9849 C.3     1  UNL1        0.0000
     47 C         141.9250  144.1181  163.1307 C.3     1  UNL1        0.0001
     48 C         142.0830  143.1707  161.9786 C.3     1  UNL1        0.0021
     49 N         142.9104  142.0633  159.0968 N.am    1  UNL1       -0.2640
     50 C         143.7747  142.9929  158.2976 C.2     1  UNL1        0.4021
     51 O         143.2698  144.3567  157.9301 O.2     1  UNL1       -0.2264
     52 H         143.2418  141.1682  159.3380 H       1  UNL1        0.1532
     53 O         145.1441  142.5588  157.8660 O.3     1  UNL1       -0.4295
     54 C         145.3988  142.1951  156.4332 C.3     1  UNL1        0.2645
     55 C         146.8036  142.1491  155.9094 C.3     1  UNL1        0.0567
     56 C         144.2487  141.8774  155.5242 C.3     1  UNL1        0.4342
     57 F         143.0986  141.5597  154.6153 F       1  UNL1       -0.1664
     58 F         144.3128  143.2649  154.9581 F       1  UNL1       -0.1664
     59 F         144.1846  140.4898  156.0904 F       1  UNL1       -0.1664
@<TRIPOS>BOND
     1    40    41    1
     2    41    29    1
     3    29    30   ar
     4    30    31   ar
     5    31    32   ar
     6    32    28    1
     7     1    28    1
     8     1     2    1
     9     2     3    1
    10     3     8    1
    11     8     9    2
    12     8    10   am
    13    12    10    1
    14    12    15    1
    15    15    16    2
    16    15    17   am
    17    17    19    1
    18    19    20    2
    19    19    21    2
    20    19    22    1
    21    22    23    1
    22    23    24    1
    23    12    13    1
    24    13    14    1
    25    14    25    1
    26    25    26    1
    27    26    27    1
    28     3     4    1
    29     4     5   am
    30     5     6    2
    31     5    42    1
    32    42    49    1
    33    49    50   am
    34    50    51    2
    35    50    53    1
    36    53    54    1
    37    54    55    1
    38    54    56    1
    39    56    57    1
    40    56    58    1
    41    56    59    1
    42    42    43    1
    43    43    44    1
    44    44    45    1
    45    45    46    1
    46    46    47    1
    47    47    48    1
    48     4     7    1
    49    32    33   ar
    50    33    34   ar
    51    34    35   ar
    52    35    36    1
    53    35    37   ar
    54    37    38   ar
    55    38    39   ar
    56    39    29   ar
    57     7     1    1
    58    39    33   ar
    59    14    12    1
    60    27    25    1
    61    48    43    1
    62    24    22    1
    63    10    11    1
    64    17    18    1
    65    49    52    1
