@<TRIPOS>MOLECULE
*****
 28 30 0 0 0
SMALL
GASTEIGER

@<TRIPOS>ATOM
      1 N         139.1727  139.7745  165.1070 N.ar    1  UNL1       -0.3190
      2 C         139.0340  140.0549  166.5740 C.ar    1  UNL1        0.0823
      3 C         140.3828  139.8851  167.2079 C.ar    1  UNL1        0.0895
      4 C         141.3552  139.4998  166.1327 C.ar    1  UNL1        0.1028
      5 N         142.8249  139.2023  166.1682 N.ar    1  UNL1       -0.2425
      6 C         143.5468  138.8365  164.9053 C.ar    1  UNL1        0.0946
      7 C         142.7989  138.7681  163.6068 C.ar    1  UNL1       -0.0013
      8 C         143.5208  138.4022  162.3439 C.3     1  UNL1        0.0327
      9 C         141.3291  139.0655  163.5713 C.ar    1  UNL1        0.0160
     10 C         140.6073  139.4314  164.8343 C.ar    1  UNL1        0.0780
     11 C         140.7031  140.0685  168.6618 C.2     1  UNL1        0.2489
     12 O         139.6473  139.8249  169.6990 O.2     1  UNL1       -0.2700
     13 N         142.0794  140.4955  169.0786 N.am    1  UNL1       -0.2984
     14 H         142.7725  140.6554  168.3978 H       1  UNL1        0.1498
     15 C         142.3997  140.6789  170.5324 C.3     1  UNL1        0.1215
     16 C         141.9489  141.9170  171.2493 C.3     1  UNL1        0.1583
     17 O         140.5721  141.9816  171.8411 O.3     1  UNL1       -0.3802
     18 H         139.9130  141.9566  171.1299 H       1  UNL1        0.2105
     19 C         138.0704  139.8277  164.0911 C.3     1  UNL1        0.1518
     20 C         138.1199  143.2469  162.0768 C.ar    1  UNL1        0.2234
     21 N         138.2992  142.7469  160.6740 N.ar    1  UNL1       -0.1896
     22 C         138.4022  141.2738  160.4102 C.ar    1  UNL1        0.2012
     23 N         138.3260  140.3008  161.5492 N.ar    1  UNL1       -0.2265
     24 C         138.1467  140.8008  162.9520 C.ar    1  UNL1        0.0841
     25 C         138.0436  142.2738  163.2157 C.ar    1  UNL1        0.0468
     26 C         137.8644  142.7738  164.6186 C.3     1  UNL1        0.0372
     27 C         139.2527  145.5700  162.3410 C.3     1  UNL1        0.2542
     28 O         138.0168  144.7199  162.3405 O.3     1  UNL1       -0.4563
@<TRIPOS>BOND
     1    27    28    1
     2    28    20    1
     3    20    21   ar
     4    21    22   ar
     5    22    23   ar
     6    23    24   ar
     7    24    19    1
     8    19     1    1
     9     1     2   ar
    10     2     3   ar
    11     3    11    1
    12    11    12    2
    13    11    13   am
    14    13    15    1
    15    15    16    1
    16    16    17    1
    17     3     4   ar
    18     4     5   ar
    19     5     6   ar
    20     6     7   ar
    21     7     8    1
    22     7     9   ar
    23     9    10   ar
    24    24    25   ar
    25    25    26    1
    26    25    20   ar
    27    10     1   ar
    28    10     4   ar
    29    13    14    1
    30    17    18    1
@<TRIPOS>MOLECULE
*****
 28 30 0 0 0
SMALL
GASTEIGER

@<TRIPOS>ATOM
      1 N         139.8100  140.4450  166.8767 N.ar    1  UNL1       -0.3190
      2 C         138.6108  139.5919  167.1670 C.ar    1  UNL1        0.0823
      3 C         138.4221  139.5486  168.6545 C.ar    1  UNL1        0.0895
      4 C         139.5046  140.3748  169.2834 C.ar    1  UNL1        0.1028
      5 N         139.8200  140.6943  170.7146 N.ar    1  UNL1       -0.2425
      6 C         140.9932  141.5678  171.0470 C.ar    1  UNL1        0.0946
      7 C         141.8510  142.1218  169.9483 C.ar    1  UNL1       -0.0013
      8 C         143.0243  142.9953  170.2808 C.3     1  UNL1        0.0327
      9 C         141.5356  141.8023  168.5171 C.ar    1  UNL1        0.0160
     10 C         140.3624  140.9288  168.1846 C.ar    1  UNL1        0.0780
     11 C         137.3406  138.8089  169.3848 C.2     1  UNL1        0.2489
     12 O         136.5767  137.7201  168.6914 O.2     1  UNL1       -0.2700
     13 N         137.0231  139.1581  170.8087 N.am    1  UNL1       -0.2984
     14 H         137.5245  139.8727  171.2639 H       1  UNL1        0.1498
     15 C         135.9417  138.4184  171.5391 C.3     1  UNL1        0.1215
     16 C         136.2977  137.3033  172.4771 C.3     1  UNL1        0.1583
     17 O         137.3891  136.3396  172.1164 O.3     1  UNL1       -0.3802
     18 H         137.1196  135.8208  171.3423 H       1  UNL1        0.2105
     19 C         140.3602  140.7590  165.5170 C.3     1  UNL1        0.1518
     20 C         138.7829  143.6426  163.2927 C.ar    1  UNL1        0.2234
     21 N         137.7906  142.8638  162.4810 N.ar    1  UNL1       -0.1896
     22 C         137.6549  141.3834  162.6813 C.ar    1  UNL1        0.2012
     23 N         138.5114  140.6818  163.6932 N.ar    1  UNL1       -0.2265
     24 C         139.5037  141.4606  164.5050 C.ar    1  UNL1        0.0841
     25 C         139.6394  142.9410  164.3047 C.ar    1  UNL1        0.0468
     26 C         140.6317  143.7197  165.1165 C.3     1  UNL1        0.0372
     27 C         139.8012  145.6544  162.0023 C.3     1  UNL1        0.2542
     28 O         138.9186  145.1229  163.0924 O.3     1  UNL1       -0.4563
@<TRIPOS>BOND
     1    27    28    1
     2    28    20    1
     3    20    21   ar
     4    21    22   ar
     5    22    23   ar
     6    23    24   ar
     7    24    19    1
     8    19     1    1
     9     1     2   ar
    10     2     3   ar
    11     3    11    1
    12    11    12    2
    13    11    13   am
    14    13    15    1
    15    15    16    1
    16    16    17    1
    17     3     4   ar
    18     4     5   ar
    19     5     6   ar
    20     6     7   ar
    21     7     8    1
    22     7     9   ar
    23     9    10   ar
    24    24    25   ar
    25    25    26    1
    26    25    20   ar
    27    10     1   ar
    28    10     4   ar
    29    13    14    1
    30    17    18    1
@<TRIPOS>MOLECULE
*****
 28 30 0 0 0
SMALL
GASTEIGER

@<TRIPOS>ATOM
      1 N         139.9581  140.3488  166.9828 N.ar    1  UNL1       -0.3190
      2 C         138.7532  139.4960  167.2491 C.ar    1  UNL1        0.0823
      3 C         138.4716  139.5387  168.7218 C.ar    1  UNL1        0.0895
      4 C         139.5024  140.4179  169.3656 C.ar    1  UNL1        0.1028
      5 N         139.7231  140.8273  170.7917 N.ar    1  UNL1       -0.2425
      6 C         140.8626  141.7373  171.1429 C.ar    1  UNL1        0.0946
      7 C         141.7813  142.2380  170.0681 C.ar    1  UNL1       -0.0013
      8 C         142.9208  143.1481  170.4193 C.3     1  UNL1        0.0327
      9 C         141.5606  141.8286  168.6420 C.ar    1  UNL1        0.0160
     10 C         140.4211  140.9186  168.2908 C.ar    1  UNL1        0.0780
     11 C         137.3551  138.8272  169.4270 C.2     1  UNL1        0.2489
     12 O         136.5720  137.7664  168.7121 O.2     1  UNL1       -0.2700
     13 N         137.0217  139.1766  170.8472 N.am    1  UNL1       -0.2984
     14 H         137.5357  139.8729  171.3165 H       1  UNL1        0.1498
     15 C         135.9053  138.4651  171.5524 C.3     1  UNL1        0.1215
     16 C         136.2033  137.2843  172.4280 C.3     1  UNL1        0.1583
     17 O         137.3417  136.3680  172.0896 O.3     1  UNL1       -0.3802
     18 H         137.1505  135.9086  171.2570 H       1  UNL1        0.2105
     19 C         140.5893  140.5895  165.6435 C.3     1  UNL1        0.1518
     20 C         142.1410  144.0234  164.3980 C.ar    1  UNL1        0.2234
     21 N         140.8991  144.7758  164.0220 N.ar    1  UNL1       -0.1896
     22 C         139.5539  144.1329  164.1865 C.ar    1  UNL1        0.2012
     23 N         139.4506  142.7375  164.7269 N.ar    1  UNL1       -0.2265
     24 C         140.6925  141.9850  165.1029 C.ar    1  UNL1        0.0841
     25 C         142.0377  142.6280  164.9385 C.ar    1  UNL1        0.0468
     26 C         143.2796  141.8754  165.3145 C.3     1  UNL1        0.0372
     27 C         144.0804  144.8228  162.8652 C.3     1  UNL1        0.2542
     28 O         143.4862  144.6663  164.2335 O.3     1  UNL1       -0.4563
@<TRIPOS>BOND
     1    27    28    1
     2    28    20    1
     3    20    21   ar
     4    21    22   ar
     5    22    23   ar
     6    23    24   ar
     7    24    19    1
     8    19     1    1
     9     1     2   ar
    10     2     3   ar
    11     3    11    1
    12    11    12    2
    13    11    13   am
    14    13    15    1
    15    15    16    1
    16    16    17    1
    17     3     4   ar
    18     4     5   ar
    19     5     6   ar
    20     6     7   ar
    21     7     8    1
    22     7     9   ar
    23     9    10   ar
    24    24    25   ar
    25    25    26    1
    26    25    20   ar
    27    10     1   ar
    28    10     4   ar
    29    13    14    1
    30    17    18    1
@<TRIPOS>MOLECULE
*****
 28 30 0 0 0
SMALL
GASTEIGER

@<TRIPOS>ATOM
      1 N         140.4046  144.1014  164.4479 N.ar    1  UNL1       -0.3190
      2 C         139.6292  144.8241  163.3865 C.ar    1  UNL1        0.0823
      3 C         140.5114  144.9626  162.1813 C.ar    1  UNL1        0.0895
      4 C         141.8321  144.3255  162.4979 C.ar    1  UNL1        0.1028
      5 N         143.0862  144.1613  161.6915 N.ar    1  UNL1       -0.2425
      6 C         144.2742  143.4649  162.2860 C.ar    1  UNL1        0.0946
      7 C         144.2082  142.9327  163.6869 C.ar    1  UNL1       -0.0013
      8 C         145.3963  142.2363  164.2814 C.3     1  UNL1        0.0327
      9 C         142.9541  143.0969  164.4932 C.ar    1  UNL1        0.0160
     10 C         141.7660  143.7933  163.8987 C.ar    1  UNL1        0.0780
     11 C         140.1386  145.6223  160.8868 C.2     1  UNL1        0.2489
     12 O         139.2729  146.8471  160.8913 O.2     1  UNL1       -0.2700
     13 N         140.6315  145.0570  159.5877 N.am    1  UNL1       -0.2984
     14 H         141.1997  144.2531  159.5847 H       1  UNL1        0.1498
     15 C         140.2586  145.7167  158.2932 C.3     1  UNL1        0.1215
     16 C         141.2997  145.9353  157.2357 C.3     1  UNL1        0.1583
     17 O         142.6692  146.4126  157.6189 O.3     1  UNL1       -0.3802
     18 H         142.6097  147.3123  157.9766 H       1  UNL1        0.2105
     19 C         139.9061  143.7488  165.8180 C.3     1  UNL1        0.1518
     20 C         140.1531  140.3255  167.8105 C.ar    1  UNL1        0.2234
     21 N         139.3035  139.4359  166.9521 N.ar    1  UNL1       -0.1896
     22 C         138.6548  139.9840  165.7156 C.ar    1  UNL1        0.2012
     23 N         138.8556  141.4215  165.3376 N.ar    1  UNL1       -0.2265
     24 C         139.7052  142.3111  166.1960 C.ar    1  UNL1        0.0841
     25 C         140.3539  141.7630  167.4325 C.ar    1  UNL1        0.0468
     26 C         141.2035  142.6527  168.2909 C.3     1  UNL1        0.0372
     27 C         140.1307  139.9358  170.3791 C.3     1  UNL1        0.2542
     28 O         140.8018  139.7774  169.0470 O.3     1  UNL1       -0.4563
@<TRIPOS>BOND
     1    27    28    1
     2    28    20    1
     3    20    21   ar
     4    21    22   ar
     5    22    23   ar
     6    23    24   ar
     7    24    19    1
     8    19     1    1
     9     1     2   ar
    10     2     3   ar
    11     3    11    1
    12    11    12    2
    13    11    13   am
    14    13    15    1
    15    15    16    1
    16    16    17    1
    17     3     4   ar
    18     4     5   ar
    19     5     6   ar
    20     6     7   ar
    21     7     8    1
    22     7     9   ar
    23     9    10   ar
    24    24    25   ar
    25    25    26    1
    26    25    20   ar
    27    10     1   ar
    28    10     4   ar
    29    13    14    1
    30    17    18    1
@<TRIPOS>MOLECULE
*****
 28 30 0 0 0
SMALL
GASTEIGER

@<TRIPOS>ATOM
      1 N         138.6279  140.0170  163.0812 N.ar    1  UNL1       -0.3190
      2 C         138.5929  139.6737  161.6215 C.ar    1  UNL1        0.0823
      3 C         138.3852  140.9441  160.8515 C.ar    1  UNL1        0.0895
      4 C         138.2919  142.0726  161.8353 C.ar    1  UNL1        0.1028
      5 N         138.0898  143.5478  161.6544 N.ar    1  UNL1       -0.2425
      6 C         138.0376  144.4500  162.8516 C.ar    1  UNL1        0.0946
      7 C         138.1876  143.8770  164.2297 C.ar    1  UNL1       -0.0013
      8 C         138.1354  144.7793  165.4269 C.3     1  UNL1        0.0327
      9 C         138.3897  142.4017  164.4106 C.ar    1  UNL1        0.0160
     10 C         138.4419  141.4995  163.2134 C.ar    1  UNL1        0.0780
     11 C         138.2880  141.0650  159.3595 C.2     1  UNL1        0.2489
     12 O         138.1393  139.8340  158.5154 O.2     1  UNL1       -0.2700
     13 N         138.3394  142.4169  158.7116 N.am    1  UNL1       -0.2984
     14 H         138.4370  143.2249  159.2656 H       1  UNL1        0.1498
     15 C         138.2422  142.5378  157.2196 C.3     1  UNL1        0.1215
     16 C         136.9123  142.3946  156.5408 C.3     1  UNL1        0.1583
     17 O         136.2590  143.5893  155.9116 O.3     1  UNL1       -0.3802
     18 H         136.0212  144.2285  156.6014 H       1  UNL1        0.2105
     19 C         138.8158  139.0478  164.2106 C.3     1  UNL1        0.1518
     20 C         140.1625  139.6964  167.8871 C.ar    1  UNL1        0.2234
     21 N         141.5903  140.0601  167.6059 N.ar    1  UNL1       -0.1896
     22 C         142.0933  140.0864  166.1930 C.ar    1  UNL1        0.2012
     23 N         141.1685  139.7490  165.0612 N.ar    1  UNL1       -0.2265
     24 C         139.7407  139.3853  165.3424 C.ar    1  UNL1        0.0841
     25 C         139.2377  139.3590  166.7553 C.ar    1  UNL1        0.0468
     26 C         137.8099  138.9952  167.0364 C.3     1  UNL1        0.0372
     27 C         139.2557  140.9466  169.9762 C.3     1  UNL1        0.2542
     28 O         139.6595  139.6701  169.3000 O.3     1  UNL1       -0.4563
@<TRIPOS>BOND
     1    27    28    1
     2    28    20    1
     3    20    21   ar
     4    21    22   ar
     5    22    23   ar
     6    23    24   ar
     7    24    19    1
     8    19     1    1
     9     1     2   ar
    10     2     3   ar
    11     3    11    1
    12    11    12    2
    13    11    13   am
    14    13    15    1
    15    15    16    1
    16    16    17    1
    17     3     4   ar
    18     4     5   ar
    19     5     6   ar
    20     6     7   ar
    21     7     8    1
    22     7     9   ar
    23     9    10   ar
    24    24    25   ar
    25    25    26    1
    26    25    20   ar
    27    10     1   ar
    28    10     4   ar
    29    13    14    1
    30    17    18    1
@<TRIPOS>MOLECULE
*****
 28 30 0 0 0
SMALL
GASTEIGER

@<TRIPOS>ATOM
      1 N         138.8699  143.1517  164.7460 N.ar    1  UNL1       -0.3190
      2 C         139.4297  143.7639  165.9957 C.ar    1  UNL1        0.0823
      3 C         139.9935  142.6599  166.8402 C.ar    1  UNL1        0.0895
      4 C         139.7821  141.3654  166.1125 C.ar    1  UNL1        0.1028
      5 N         140.1323  139.9491  166.4612 N.ar    1  UNL1       -0.2425
      6 C         139.7880  138.8369  165.5156 C.ar    1  UNL1        0.0946
      7 C         139.0935  139.1409  164.2212 C.ar    1  UNL1       -0.0013
      8 C         138.7492  138.0285  163.2756 C.3     1  UNL1        0.0327
      9 C         138.7433  140.5571  163.8725 C.ar    1  UNL1        0.0160
     10 C         139.0877  141.6693  164.8182 C.ar    1  UNL1        0.0780
     11 C         140.6530  142.8219  168.1777 C.2     1  UNL1        0.2489
     12 O         140.1507  143.8559  169.1413 O.2     1  UNL1       -0.2700
     13 N         141.8148  141.9497  168.5517 N.am    1  UNL1       -0.2984
     14 H         142.1444  141.2711  167.9193 H       1  UNL1        0.1498
     15 C         142.4742  142.1117  169.8892 C.3     1  UNL1        0.1215
     16 C         141.8359  141.5297  171.1155 C.3     1  UNL1        0.1583
     17 O         140.6149  142.1735  171.7027 O.3     1  UNL1       -0.3802
     18 H         140.8443  143.0532  172.0411 H       1  UNL1        0.2105
     19 C         138.2083  143.8919  163.6215 C.3     1  UNL1        0.1518
     20 C         140.4241  144.3774  160.3649 C.ar    1  UNL1        0.2234
     21 N         139.7439  143.4353  159.4163 N.ar    1  UNL1       -0.1896
     22 C         138.5520  142.6454  159.8694 C.ar    1  UNL1        0.2012
     23 N         138.0401  142.7976  161.2711 N.ar    1  UNL1       -0.2265
     24 C         138.7202  143.7397  162.2197 C.ar    1  UNL1        0.0841
     25 C         139.9122  144.5296  161.7666 C.ar    1  UNL1        0.0468
     26 C         140.5923  145.4717  162.7153 C.3     1  UNL1        0.0372
     27 C         141.7788  145.5139  158.4615 C.3     1  UNL1        0.2542
     28 O         141.6160  145.1673  159.9118 O.3     1  UNL1       -0.4563
@<TRIPOS>BOND
     1    27    28    1
     2    28    20    1
     3    20    21   ar
     4    21    22   ar
     5    22    23   ar
     6    23    24   ar
     7    24    19    1
     8    19     1    1
     9     1     2   ar
    10     2     3   ar
    11     3    11    1
    12    11    12    2
    13    11    13   am
    14    13    15    1
    15    15    16    1
    16    16    17    1
    17     3     4   ar
    18     4     5   ar
    19     5     6   ar
    20     6     7   ar
    21     7     8    1
    22     7     9   ar
    23     9    10   ar
    24    24    25   ar
    25    25    26    1
    26    25    20   ar
    27    10     1   ar
    28    10     4   ar
    29    13    14    1
    30    17    18    1
@<TRIPOS>MOLECULE
*****
 28 30 0 0 0
SMALL
GASTEIGER

@<TRIPOS>ATOM
      1 N         139.1861  139.6731  164.9349 N.ar    1  UNL1       -0.3190
      2 C         138.9096  139.9431  166.3843 C.ar    1  UNL1        0.0823
      3 C         140.2033  139.8209  167.1335 C.ar    1  UNL1        0.0895
      4 C         141.2794  139.4756  166.1472 C.ar    1  UNL1        0.1028
      5 N         142.7505  139.2324  166.3109 N.ar    1  UNL1       -0.2425
      6 C         143.5929  138.8980  165.1157 C.ar    1  UNL1        0.0946
      7 C         142.9642  138.8067  163.7568 C.ar    1  UNL1       -0.0013
      8 C         143.8067  138.4722  162.5616 C.3     1  UNL1        0.0327
      9 C         141.4931  139.0498  163.5932 C.ar    1  UNL1        0.0160
     10 C         140.6507  139.3842  164.7884 C.ar    1  UNL1        0.0780
     11 C         140.3885  140.0108  168.6099 C.2     1  UNL1        0.2489
     12 O         139.2161  139.8784  169.5360 O.2     1  UNL1       -0.2700
     13 N         141.7463  140.3333  169.1601 N.am    1  UNL1       -0.2984
     14 H         142.5158  140.4202  168.5523 H       1  UNL1        0.1498
     15 C         141.9314  140.5232  170.6365 C.3     1  UNL1        0.1215
     16 C         141.7291  141.8771  171.2496 C.3     1  UNL1        0.1583
     17 O         140.5745  142.1154  172.1771 O.3     1  UNL1       -0.3802
     18 H         139.7425  142.0339  171.6851 H       1  UNL1        0.2105
     19 C         138.1755  139.6893  163.8266 C.3     1  UNL1        0.1518
     20 C         138.2529  141.7387  160.4288 C.ar    1  UNL1        0.2234
     21 N         138.0604  143.1369  160.9367 N.ar    1  UNL1       -0.1896
     22 C         137.9062  143.3859  162.4078 C.ar    1  UNL1        0.2012
     23 N         137.9445  142.2368  163.3711 N.ar    1  UNL1       -0.2265
     24 C         138.1371  140.8386  162.8632 C.ar    1  UNL1        0.0841
     25 C         138.2913  140.5895  161.3921 C.ar    1  UNL1        0.0468
     26 C         138.4839  139.1913  160.8843 C.3     1  UNL1        0.0372
     27 C         138.3893  142.6408  157.9963 C.3     1  UNL1        0.2542
     28 O         138.4071  141.4896  158.9577 O.3     1  UNL1       -0.4563
@<TRIPOS>BOND
     1    27    28    1
     2    28    20    1
     3    20    21   ar
     4    21    22   ar
     5    22    23   ar
     6    23    24   ar
     7    24    19    1
     8    19     1    1
     9     1     2   ar
    10     2     3   ar
    11     3    11    1
    12    11    12    2
    13    11    13   am
    14    13    15    1
    15    15    16    1
    16    16    17    1
    17     3     4   ar
    18     4     5   ar
    19     5     6   ar
    20     6     7   ar
    21     7     8    1
    22     7     9   ar
    23     9    10   ar
    24    24    25   ar
    25    25    26    1
    26    25    20   ar
    27    10     1   ar
    28    10     4   ar
    29    13    14    1
    30    17    18    1
@<TRIPOS>MOLECULE
*****
 28 30 0 0 0
SMALL
GASTEIGER

@<TRIPOS>ATOM
      1 N         140.3212  139.3359  164.8498 N.ar    1  UNL1       -0.3190
      2 C         141.3049  139.1407  165.9653 C.ar    1  UNL1        0.0823
      3 C         141.4777  140.4555  166.6663 C.ar    1  UNL1        0.0895
      4 C         140.6008  141.4633  165.9841 C.ar    1  UNL1        0.1028
      5 N         140.3608  142.9217  166.2401 N.ar    1  UNL1       -0.2425
      6 C         139.4061  143.6880  165.3734 C.ar    1  UNL1        0.0946
      7 C         138.6914  142.9961  164.2508 C.ar    1  UNL1       -0.0013
      8 C         137.7366  143.7625  163.3841 C.3     1  UNL1        0.0327
      9 C         138.9314  141.5377  163.9948 C.ar    1  UNL1        0.0160
     10 C         139.8861  140.7713  164.8614 C.ar    1  UNL1        0.0780
     11 C         142.3705  140.7167  167.8430 C.2     1  UNL1        0.2489
     12 O         142.9611  139.5682  168.6059 O.2     1  UNL1       -0.2700
     13 N         142.6728  142.1265  168.2567 N.am    1  UNL1       -0.2984
     14 H         142.2852  142.8804  167.7560 H       1  UNL1        0.1498
     15 C         143.5657  142.3877  169.4334 C.3     1  UNL1        0.1215
     16 C         142.9951  142.9674  170.6937 C.3     1  UNL1        0.1583
     17 O         143.6309  144.1733  171.3195 O.3     1  UNL1       -0.3802
     18 H         144.5194  143.9438  171.6340 H       1  UNL1        0.2105
     19 C         139.8546  138.2809  163.8911 C.3     1  UNL1        0.1518
     20 C         139.8256  138.6298  159.9378 C.ar    1  UNL1        0.2234
     21 N         141.2627  138.3429  159.6174 N.ar    1  UNL1       -0.1896
     22 C         142.2303  138.0354  160.7215 C.ar    1  UNL1        0.2012
     23 N         141.7611  138.0147  162.1460 N.ar    1  UNL1       -0.2265
     24 C         140.3240  138.3016  162.4665 C.ar    1  UNL1        0.0841
     25 C         139.3564  138.6091  161.3624 C.ar    1  UNL1        0.0468
     26 C         137.9193  138.8959  161.6829 C.3     1  UNL1        0.0372
     27 C         138.6514  140.3554  158.3909 C.3     1  UNL1        0.2542
     28 O         138.8580  138.9373  158.8337 O.3     1  UNL1       -0.4563
@<TRIPOS>BOND
     1    27    28    1
     2    28    20    1
     3    20    21   ar
     4    21    22   ar
     5    22    23   ar
     6    23    24   ar
     7    24    19    1
     8    19     1    1
     9     1     2   ar
    10     2     3   ar
    11     3    11    1
    12    11    12    2
    13    11    13   am
    14    13    15    1
    15    15    16    1
    16    16    17    1
    17     3     4   ar
    18     4     5   ar
    19     5     6   ar
    20     6     7   ar
    21     7     8    1
    22     7     9   ar
    23     9    10   ar
    24    24    25   ar
    25    25    26    1
    26    25    20   ar
    27    10     1   ar
    28    10     4   ar
    29    13    14    1
    30    17    18    1
@<TRIPOS>MOLECULE
*****
 28 30 0 0 0
SMALL
GASTEIGER

@<TRIPOS>ATOM
      1 N         139.3636  142.3360  165.0619 N.ar    1  UNL1       -0.3190
      2 C         139.8640  142.2962  166.4754 C.ar    1  UNL1        0.0823
      3 C         139.9361  140.8597  166.9012 C.ar    1  UNL1        0.0895
      4 C         139.4804  140.0117  165.7508 C.ar    1  UNL1        0.1028
      5 N         139.3419  138.5267  165.5916 N.ar    1  UNL1       -0.2425
      6 C         138.8496  137.9541  164.2956 C.ar    1  UNL1        0.0946
      7 C         138.4958  138.8666  163.1588 C.ar    1  UNL1       -0.0013
      8 C         138.0034  138.2939  161.8627 C.3     1  UNL1        0.0327
      9 C         138.6342  140.3516  163.3181 C.ar    1  UNL1        0.0160
     10 C         139.1266  140.9242  164.6141 C.ar    1  UNL1        0.0780
     11 C         140.3852  140.3590  168.2420 C.2     1  UNL1        0.2489
     12 O         139.3998  139.7123  169.1696 O.2     1  UNL1       -0.2700
     13 N         141.8199  140.5050  168.6551 N.am    1  UNL1       -0.2984
     14 H         142.4667  140.9295  168.0462 H       1  UNL1        0.1498
     15 C         142.2690  140.0043  169.9958 C.3     1  UNL1        0.1215
     16 C         141.9400  140.7821  171.2355 C.3     1  UNL1        0.1583
     17 O         140.6312  140.5613  171.9341 O.3     1  UNL1       -0.3802
     18 H         139.9053  140.8543  171.3612 H       1  UNL1        0.2105
     19 C         139.1396  143.5709  164.2404 C.3     1  UNL1        0.1518
     20 C         142.1200  144.1118  161.6762 C.ar    1  UNL1        0.2234
     21 N         141.3735  144.1379  160.3754 N.ar    1  UNL1       -0.1896
     22 C         139.8825  143.9751  160.3629 C.ar    1  UNL1        0.2012
     23 N         139.1378  143.7861  161.6512 N.ar    1  UNL1       -0.2265
     24 C         139.8843  143.7599  162.9520 C.ar    1  UNL1        0.0841
     25 C         141.3754  143.9228  162.9645 C.ar    1  UNL1        0.0468
     26 C         142.1218  143.8967  164.2653 C.3     1  UNL1        0.0372
     27 C         144.4979  143.0753  161.5305 C.3     1  UNL1        0.2542
     28 O         143.6111  144.2747  161.6887 O.3     1  UNL1       -0.4563
@<TRIPOS>BOND
     1    27    28    1
     2    28    20    1
     3    20    21   ar
     4    21    22   ar
     5    22    23   ar
     6    23    24   ar
     7    24    19    1
     8    19     1    1
     9     1     2   ar
    10     2     3   ar
    11     3    11    1
    12    11    12    2
    13    11    13   am
    14    13    15    1
    15    15    16    1
    16    16    17    1
    17     3     4   ar
    18     4     5   ar
    19     5     6   ar
    20     6     7   ar
    21     7     8    1
    22     7     9   ar
    23     9    10   ar
    24    24    25   ar
    25    25    26    1
    26    25    20   ar
    27    10     1   ar
    28    10     4   ar
    29    13    14    1
    30    17    18    1
