@<TRIPOS>MOLECULE
*****
 26 28 0 0 0
SMALL
GASTEIGER

@<TRIPOS>ATOM
      1 C         138.4907  139.1185  165.8979 C.ar    1  UNL1       -0.0001
      2 C         138.8258  137.7910  165.2852 C.ar    1  UNL1       -0.0003
      3 C         138.9135  137.6539  163.7941 C.ar    1  UNL1       -0.0031
      4 C         138.6662  138.8443  162.9156 C.ar    1  UNL1       -0.0071
      5 C         138.3312  140.1718  163.5283 C.ar    1  UNL1       -0.0071
      6 C         138.2435  140.3089  165.0194 C.ar    1  UNL1       -0.0031
      7 C         138.1401  141.1605  162.4164 C.3     1  UNL1        0.1222
      8 N         138.3570  140.4439  161.1166 N.3     1  UNL1       -0.1466
      9 C         138.6822  139.0125  161.4251 C.3     1  UNL1        0.1222
     10 S         138.2649  141.0521  159.7485 S.O2    1  UNL1        0.0640
     11 O         138.1886  139.6812  159.1443 O.2     1  UNL1       -0.1528
     12 O         138.3411  142.4228  160.3527 O.2     1  UNL1       -0.1528
     13 C         138.1728  141.6602  158.3804 C.ar    1  UNL1        0.1253
     14 C         137.3136  141.0194  157.3311 C.ar    1  UNL1        0.0406
     15 C         137.2215  141.6275  155.9630 C.ar    1  UNL1        0.1003
     16 N         137.9886  142.8766  155.6442 N.ar    1  UNL1       -0.2422
     17 C         138.8477  143.5174  156.6936 C.ar    1  UNL1        0.1003
     18 C         138.9398  142.9092  158.0617 C.ar    1  UNL1        0.0406
     19 C         139.4759  139.9876  168.1393 C.2     1  UNL1        0.0598
     20 C         138.4030  139.2556  167.3890 C.2     1  UNL1        0.0047
     21 O         138.0675  139.9605  170.3223 O.2     1  UNL1       -0.2681
     22 C         139.3882  140.1247  169.6304 C.2     1  UNL1        0.2679
     23 N         140.6213  140.4260  170.4298 N.am    1  UNL1       -0.1934
     24 O         140.5335  140.5631  171.9209 O.3     1  UNL1       -0.2949
     25 H         141.4881  140.5337  169.9757 H       1  UNL1        0.1825
     26 H         139.6157  140.4288  172.2045 H       1  UNL1        0.2414
@<TRIPOS>BOND
     1    21    22    2
     2    22    19    1
     3    19    20    2
     4    20     1    1
     5     1     2   ar
     6     2     3   ar
     7     3     4   ar
     8     4     5   ar
     9     5     6   ar
    10     5     7    1
    11     7     8    1
    12     8    10    1
    13    10    11    2
    14    10    12    2
    15    10    13    1
    16    13    14   ar
    17    14    15   ar
    18    15    16   ar
    19    16    17   ar
    20    17    18   ar
    21     8     9    1
    22    22    23   am
    23    23    24    1
    24     6     1   ar
    25    18    13   ar
    26     9     4    1
    27    23    25    1
    28    24    26    1
@<TRIPOS>MOLECULE
*****
 26 28 0 0 0
SMALL
GASTEIGER

@<TRIPOS>ATOM
      1 C         140.3421  143.1927  166.2307 C.ar    1  UNL1       -0.0001
      2 C         139.2340  144.1975  166.1192 C.ar    1  UNL1       -0.0003
      3 C         138.9613  144.8706  164.8067 C.ar    1  UNL1       -0.0031
      4 C         139.7966  144.5390  163.6058 C.ar    1  UNL1       -0.0071
      5 C         140.9047  143.5342  163.7174 C.ar    1  UNL1       -0.0071
      6 C         141.1774  142.8610  165.0298 C.ar    1  UNL1       -0.0031
      7 C         141.5561  143.4112  162.3718 C.3     1  UNL1        0.1222
      8 N         140.8506  144.3400  161.4286 N.3     1  UNL1       -0.1466
      9 C         139.7631  145.0370  162.1913 C.3     1  UNL1        0.1222
     10 S         141.1754  144.5372  159.9775 S.O2    1  UNL1        0.0640
     11 O         142.6093  144.1920  160.2516 O.2     1  UNL1       -0.1528
     12 O         139.7416  144.8822  159.7035 O.2     1  UNL1       -0.1528
     13 C         141.5002  144.7344  158.5265 C.ar    1  UNL1        0.1253
     14 C         140.8478  145.8437  157.7559 C.ar    1  UNL1        0.0406
     15 C         141.1725  146.0409  156.3049 C.ar    1  UNL1        0.1003
     16 N         142.1497  145.1287  155.6243 N.ar    1  UNL1       -0.2422
     17 C         142.8021  144.0194  156.3948 C.ar    1  UNL1        0.1003
     18 C         142.4773  143.8222  157.8459 C.ar    1  UNL1        0.0406
     19 C         140.3489  143.2460  168.8282 C.2     1  UNL1        0.0598
     20 C         140.6148  142.5195  167.5431 C.2     1  UNL1        0.0047
     21 O         139.6166  141.6211  170.7185 O.2     1  UNL1       -0.2681
     22 C         140.6217  142.5728  170.1406 C.2     1  UNL1        0.2679
     23 N         141.8996  142.8514  170.8752 N.am    1  UNL1       -0.1934
     24 O         142.1723  142.1783  172.1876 O.3     1  UNL1       -0.2949
     25 H         142.5592  143.4761  170.4959 H       1  UNL1        0.1825
     26 H         141.4275  141.6001  172.4153 H       1  UNL1        0.2414
@<TRIPOS>BOND
     1    21    22    2
     2    22    19    1
     3    19    20    2
     4    20     1    1
     5     1     2   ar
     6     2     3   ar
     7     3     4   ar
     8     4     5   ar
     9     5     6   ar
    10     5     7    1
    11     7     8    1
    12     8    10    1
    13    10    11    2
    14    10    12    2
    15    10    13    1
    16    13    14   ar
    17    14    15   ar
    18    15    16   ar
    19    16    17   ar
    20    17    18   ar
    21     8     9    1
    22    22    23   am
    23    23    24    1
    24     6     1   ar
    25    18    13   ar
    26     9     4    1
    27    23    25    1
    28    24    26    1
@<TRIPOS>MOLECULE
*****
 26 28 0 0 0
SMALL
GASTEIGER

@<TRIPOS>ATOM
      1 C         142.3052  139.6074  169.7308 C.ar    1  UNL1       -0.0001
      2 C         140.8308  139.7187  169.9828 C.ar    1  UNL1       -0.0003
      3 C         139.9622  140.4821  169.0274 C.ar    1  UNL1       -0.0031
      4 C         140.5680  141.1343  167.8201 C.ar    1  UNL1       -0.0071
      5 C         142.0425  141.0230  167.5682 C.ar    1  UNL1       -0.0071
      6 C         142.9111  140.2596  168.5236 C.ar    1  UNL1       -0.0031
      7 C         142.3539  141.7660  166.3028 C.3     1  UNL1        0.1222
      8 N         141.0719  142.3364  165.7728 N.3     1  UNL1       -0.1466
      9 C         139.9682  141.9460  166.7105 C.3     1  UNL1        0.1222
     10 S         140.9202  143.1537  164.5241 S.O2    1  UNL1        0.0640
     11 O         139.8113  143.9319  165.1682 O.2     1  UNL1       -0.1528
     12 O         142.0291  142.3756  163.8801 O.2     1  UNL1       -0.1528
     13 C         140.7685  143.9710  163.2755 C.ar    1  UNL1        0.1253
     14 C         141.5555  143.6185  162.0482 C.ar    1  UNL1        0.0406
     15 C         141.4038  144.4358  160.7996 C.ar    1  UNL1        0.1003
     16 N         140.4652  145.6056  160.7783 N.ar    1  UNL1       -0.2422
     17 C         139.6782  145.9582  162.0057 C.ar    1  UNL1        0.1003
     18 C         139.8299  145.1408  163.2543 C.ar    1  UNL1        0.0406
     19 C         143.5287  137.4151  170.3992 C.2     1  UNL1        0.0598
     20 C         143.1738  138.8440  170.6862 C.2     1  UNL1        0.0047
     21 O         145.7402  137.1942  171.7448 O.2     1  UNL1       -0.2681
     22 C         144.3973  136.6517  171.3546 C.2     1  UNL1        0.2679
     23 N         143.9230  135.3456  171.9198 N.am    1  UNL1       -0.1934
     24 O         144.7916  134.5822  172.8751 O.3     1  UNL1       -0.2949
     25 H         143.0416  134.9896  171.6637 H       1  UNL1        0.1825
     26 H         145.6185  135.0683  173.0194 H       1  UNL1        0.2414
@<TRIPOS>BOND
     1    21    22    2
     2    22    19    1
     3    19    20    2
     4    20     1    1
     5     1     2   ar
     6     2     3   ar
     7     3     4   ar
     8     4     5   ar
     9     5     6   ar
    10     5     7    1
    11     7     8    1
    12     8    10    1
    13    10    11    2
    14    10    12    2
    15    10    13    1
    16    13    14   ar
    17    14    15   ar
    18    15    16   ar
    19    16    17   ar
    20    17    18   ar
    21     8     9    1
    22    22    23   am
    23    23    24    1
    24     6     1   ar
    25    18    13   ar
    26     9     4    1
    27    23    25    1
    28    24    26    1
@<TRIPOS>MOLECULE
*****
 26 28 0 0 0
SMALL
GASTEIGER

@<TRIPOS>ATOM
      1 C         141.3294  141.9923  166.7946 C.ar    1  UNL1       -0.0001
      2 C         142.8033  142.2691  166.7672 C.ar    1  UNL1       -0.0003
      3 C         143.4391  142.8258  165.5279 C.ar    1  UNL1       -0.0031
      4 C         142.6009  143.1056  164.3159 C.ar    1  UNL1       -0.0071
      5 C         141.1269  142.8287  164.3432 C.ar    1  UNL1       -0.0071
      6 C         140.4912  142.2721  165.5825 C.ar    1  UNL1       -0.0031
      7 C         140.5602  143.2025  163.0055 C.3     1  UNL1        0.1222
      8 N         141.6839  143.7103  162.1516 N.3     1  UNL1       -0.1466
      9 C         142.9451  143.6504  162.9614 C.3     1  UNL1        0.1222
     10 S         141.5670  144.1932  160.7362 S.O2    1  UNL1        0.0640
     11 O         140.0994  144.4291  160.9379 O.2     1  UNL1       -0.1528
     12 O         143.0345  143.9574  160.5346 O.2     1  UNL1       -0.1528
     13 C         141.4501  144.6762  159.3209 C.ar    1  UNL1        0.1253
     14 C         142.4478  144.2326  158.2923 C.ar    1  UNL1        0.0406
     15 C         142.3309  144.7156  156.8770 C.ar    1  UNL1        0.1003
     16 N         141.2164  145.6420  156.4903 N.ar    1  UNL1       -0.2422
     17 C         140.2188  146.0856  157.5189 C.ar    1  UNL1        0.1003
     18 C         140.3356  145.6026  158.9342 C.ar    1  UNL1        0.0406
     19 C         141.3645  141.6101  169.3641 C.2     1  UNL1        0.0598
     20 C         140.6937  141.4356  168.0339 C.2     1  UNL1        0.0047
     21 O         140.6134  141.9036  171.8339 O.2     1  UNL1       -0.2681
     22 C         140.7287  141.0535  170.6035 C.2     1  UNL1        0.2679
     23 N         140.2084  139.6466  170.6124 N.am    1  UNL1       -0.1934
     24 O         139.5726  139.0899  171.8517 O.3     1  UNL1       -0.2949
     25 H         140.2841  139.0886  169.8048 H       1  UNL1        0.1825
     26 H         139.5782  139.7644  172.5488 H       1  UNL1        0.2414
@<TRIPOS>BOND
     1    21    22    2
     2    22    19    1
     3    19    20    2
     4    20     1    1
     5     1     2   ar
     6     2     3   ar
     7     3     4   ar
     8     4     5   ar
     9     5     6   ar
    10     5     7    1
    11     7     8    1
    12     8    10    1
    13    10    11    2
    14    10    12    2
    15    10    13    1
    16    13    14   ar
    17    14    15   ar
    18    15    16   ar
    19    16    17   ar
    20    17    18   ar
    21     8     9    1
    22    22    23   am
    23    23    24    1
    24     6     1   ar
    25    18    13   ar
    26     9     4    1
    27    23    25    1
    28    24    26    1
@<TRIPOS>MOLECULE
*****
 26 28 0 0 0
SMALL
GASTEIGER

@<TRIPOS>ATOM
      1 C         141.1757  139.8685  167.5882 C.ar    1  UNL1       -0.0001
      2 C         142.5847  139.3545  167.6091 C.ar    1  UNL1       -0.0003
      3 C         143.2295  138.8815  166.3400 C.ar    1  UNL1       -0.0031
      4 C         142.4652  138.9225  165.0500 C.ar    1  UNL1       -0.0071
      5 C         141.0562  139.4365  165.0291 C.ar    1  UNL1       -0.0071
      6 C         140.4115  139.9095  166.2982 C.ar    1  UNL1       -0.0031
      7 C         140.5551  139.3582  163.6174 C.3     1  UNL1        0.1222
      8 N         141.6544  138.7958  162.7659 N.3     1  UNL1       -0.1466
      9 C         142.8349  138.5265  163.6513 C.3     1  UNL1        0.1222
     10 S         141.5854  138.5464  161.2883 S.O2    1  UNL1        0.0640
     11 O         140.4244  137.6202  161.4989 O.2     1  UNL1       -0.1528
     12 O         142.7464  139.4725  161.0778 O.2     1  UNL1       -0.1528
     13 C         141.5165  138.2970  159.8108 C.ar    1  UNL1        0.1253
     14 C         140.2403  138.5537  159.0656 C.ar    1  UNL1        0.0406
     15 C         140.1713  138.3043  157.5881 C.ar    1  UNL1        0.1003
     16 N         141.3786  137.7982  156.8558 N.ar    1  UNL1       -0.2422
     17 C         142.6549  137.5416  157.6010 C.ar    1  UNL1        0.1003
     18 C         142.7238  137.7909  159.0785 C.ar    1  UNL1        0.0406
     19 C         140.9763  141.6259  169.4912 C.2     1  UNL1        0.0598
     20 C         140.5310  140.3415  168.8573 C.2     1  UNL1        0.0047
     21 O         140.7447  141.5096  172.0763 O.2     1  UNL1       -0.2681
     22 C         140.3315  142.0989  170.7603 C.2     1  UNL1        0.2679
     23 N         139.2735  143.1613  170.7134 N.am    1  UNL1       -0.1934
     24 O         138.6288  143.6343  171.9824 O.3     1  UNL1       -0.2949
     25 H         139.0023  143.5481  169.8496 H       1  UNL1        0.1825
     26 H         139.0077  143.1548  172.7358 H       1  UNL1        0.2414
@<TRIPOS>BOND
     1    21    22    2
     2    22    19    1
     3    19    20    2
     4    20     1    1
     5     1     2   ar
     6     2     3   ar
     7     3     4   ar
     8     4     5   ar
     9     5     6   ar
    10     5     7    1
    11     7     8    1
    12     8    10    1
    13    10    11    2
    14    10    12    2
    15    10    13    1
    16    13    14   ar
    17    14    15   ar
    18    15    16   ar
    19    16    17   ar
    20    17    18   ar
    21     8     9    1
    22    22    23   am
    23    23    24    1
    24     6     1   ar
    25    18    13   ar
    26     9     4    1
    27    23    25    1
    28    24    26    1
@<TRIPOS>MOLECULE
*****
 26 28 0 0 0
SMALL
GASTEIGER

@<TRIPOS>ATOM
      1 C         142.5941  142.4810  165.9442 C.ar    1  UNL1       -0.0001
      2 C         143.9436  142.9949  165.5383 C.ar    1  UNL1       -0.0003
      3 C         144.1504  143.5538  164.1618 C.ar    1  UNL1       -0.0031
      4 C         143.0077  143.5988  163.1911 C.ar    1  UNL1       -0.0071
      5 C         141.6582  143.0849  163.5970 C.ar    1  UNL1       -0.0071
      6 C         141.4515  142.5260  164.9736 C.ar    1  UNL1       -0.0031
      7 C         140.7272  143.2576  162.4336 C.3     1  UNL1        0.1222
      8 N         141.5013  143.8783  161.3087 N.3     1  UNL1       -0.1466
      9 C         142.9107  144.0892  161.7769 C.3     1  UNL1        0.1222
     10 S         140.9610  144.2270  159.9535 S.O2    1  UNL1        0.0640
     11 O         139.5681  144.2320  160.5102 O.2     1  UNL1       -0.1528
     12 O         142.3538  144.2220  159.3969 O.2     1  UNL1       -0.1528
     13 C         140.4207  144.5757  158.5983 C.ar    1  UNL1        0.1253
     14 C         140.7627  145.8947  157.9712 C.ar    1  UNL1        0.0406
     15 C         140.2224  146.2433  156.6160 C.ar    1  UNL1        0.1003
     16 N         139.3401  145.2729  155.8879 N.ar    1  UNL1       -0.2422
     17 C         138.9981  143.9540  156.5151 C.ar    1  UNL1        0.1003
     18 C         139.5384  143.6053  157.8703 C.ar    1  UNL1        0.0406
     19 C         143.1931  142.4467  168.4720 C.2     1  UNL1        0.0598
     20 C         142.3874  141.9221  167.3207 C.2     1  UNL1        0.0047
     21 O         143.3458  140.4611  170.1406 O.2     1  UNL1       -0.2681
     22 C         142.9863  141.8878  169.8486 C.2     1  UNL1        0.2679
     23 N         142.4201  142.7557  170.9332 N.am    1  UNL1       -0.1934
     24 O         142.2133  142.1968  172.3097 O.3     1  UNL1       -0.2949
     25 H         142.1842  143.6921  170.7415 H       1  UNL1        0.1825
     26 H         142.4946  141.2686  172.3274 H       1  UNL1        0.2414
@<TRIPOS>BOND
     1    21    22    2
     2    22    19    1
     3    19    20    2
     4    20     1    1
     5     1     2   ar
     6     2     3   ar
     7     3     4   ar
     8     4     5   ar
     9     5     6   ar
    10     5     7    1
    11     7     8    1
    12     8    10    1
    13    10    11    2
    14    10    12    2
    15    10    13    1
    16    13    14   ar
    17    14    15   ar
    18    15    16   ar
    19    16    17   ar
    20    17    18   ar
    21     8     9    1
    22    22    23   am
    23    23    24    1
    24     6     1   ar
    25    18    13   ar
    26     9     4    1
    27    23    25    1
    28    24    26    1
@<TRIPOS>MOLECULE
*****
 26 28 0 0 0
SMALL
GASTEIGER

@<TRIPOS>ATOM
      1 C         139.6684  140.7179  166.7719 C.ar    1  UNL1       -0.0001
      2 C         138.6439  139.7701  166.2227 C.ar    1  UNL1       -0.0003
      3 C         138.2173  139.8753  164.7885 C.ar    1  UNL1       -0.0031
      4 C         138.8153  140.9285  163.9035 C.ar    1  UNL1       -0.0071
      5 C         139.8398  141.8764  164.4527 C.ar    1  UNL1       -0.0071
      6 C         140.2664  141.7711  165.8869 C.ar    1  UNL1       -0.0031
      7 C         140.2506  142.8055  163.3490 C.3     1  UNL1        0.1222
      8 N         139.4799  142.4317  162.1176 N.3     1  UNL1       -0.1466
      9 C         138.5928  141.2717  162.4603 C.3     1  UNL1        0.1222
     10 S         139.5788  143.1006  160.7786 S.O2    1  UNL1        0.0640
     11 O         140.1186  141.8330  160.1853 O.2     1  UNL1       -0.1528
     12 O         139.0391  144.3681  161.3719 O.2     1  UNL1       -0.1528
     13 C         139.6778  143.7695  159.4397 C.ar    1  UNL1        0.1253
     14 C         139.1495  143.0807  158.2164 C.ar    1  UNL1        0.0406
     15 C         139.2484  143.7495  156.8774 C.ar    1  UNL1        0.1003
     16 N         139.8756  145.1072  156.7618 N.ar    1  UNL1       -0.2422
     17 C         140.4039  145.7960  157.9851 C.ar    1  UNL1        0.1003
     18 C         140.3050  145.1271  159.3241 C.ar    1  UNL1        0.0406
     19 C         140.3416  141.8558  169.0084 C.2     1  UNL1        0.0598
     20 C         140.0950  140.6126  168.2061 C.2     1  UNL1        0.0047
     21 O         140.0799  142.5720  171.4921 O.2     1  UNL1       -0.2681
     22 C         140.7682  141.7505  170.4426 C.2     1  UNL1        0.2679
     23 N         141.8831  140.8237  170.8274 N.am    1  UNL1       -0.1934
     24 O         142.3097  140.7184  172.2616 O.3     1  UNL1       -0.2949
     25 H         142.3349  140.2845  170.1386 H       1  UNL1        0.1825
     26 H         141.7669  141.3111  172.8047 H       1  UNL1        0.2414
@<TRIPOS>BOND
     1    21    22    2
     2    22    19    1
     3    19    20    2
     4    20     1    1
     5     1     2   ar
     6     2     3   ar
     7     3     4   ar
     8     4     5   ar
     9     5     6   ar
    10     5     7    1
    11     7     8    1
    12     8    10    1
    13    10    11    2
    14    10    12    2
    15    10    13    1
    16    13    14   ar
    17    14    15   ar
    18    15    16   ar
    19    16    17   ar
    20    17    18   ar
    21     8     9    1
    22    22    23   am
    23    23    24    1
    24     6     1   ar
    25    18    13   ar
    26     9     4    1
    27    23    25    1
    28    24    26    1
@<TRIPOS>MOLECULE
*****
 26 28 0 0 0
SMALL
GASTEIGER

@<TRIPOS>ATOM
      1 C         142.3120  139.1718  169.5828 C.ar    1  UNL1       -0.0001
      2 C         141.0280  139.7835  170.0595 C.ar    1  UNL1       -0.0003
      3 C         140.0853  140.4107  169.0757 C.ar    1  UNL1       -0.0031
      4 C         140.4265  140.4263  167.6152 C.ar    1  UNL1       -0.0071
      5 C         141.7105  139.8147  167.1384 C.ar    1  UNL1       -0.0071
      6 C         142.6532  139.1875  168.1222 C.ar    1  UNL1       -0.0031
      7 C         141.7770  139.9786  165.6488 C.3     1  UNL1        0.1222
      8 N         140.5342  140.6916  165.2051 N.3     1  UNL1       -0.1466
      9 C         139.6995  140.9682  166.4203 C.3     1  UNL1        0.1222
     10 S         140.1869  141.0627  163.7938 S.O2    1  UNL1        0.0640
     11 O         141.1929  140.0728  163.2858 O.2     1  UNL1       -0.1528
     12 O         139.1809  142.0526  164.3017 O.2     1  UNL1       -0.1528
     13 C         139.8395  141.4339  162.3825 C.ar    1  UNL1        0.1253
     14 C         138.6448  142.2979  162.1066 C.ar    1  UNL1        0.0406
     15 C         138.2975  142.6691  160.6954 C.ar    1  UNL1        0.1003
     16 N         139.1449  142.1762  159.5600 N.ar    1  UNL1       -0.2422
     17 C         140.3397  141.3122  159.8359 C.ar    1  UNL1        0.1003
     18 C         140.6869  140.9411  161.2472 C.ar    1  UNL1        0.0406
     19 C         143.5539  137.0769  170.4877 C.2     1  UNL1        0.0598
     20 C         143.2547  138.5446  170.5666 C.2     1  UNL1        0.0047
     21 O         145.7210  137.1935  171.9159 O.2     1  UNL1       -0.2681
     22 C         144.4966  136.4497  171.4715 C.2     1  UNL1        0.2679
     23 N         144.2148  135.0786  172.0109 N.am    1  UNL1       -0.1934
     24 O         145.1576  134.4514  172.9947 O.3     1  UNL1       -0.2949
     25 H         143.4112  134.5905  171.7192 H       1  UNL1        0.1825
     26 H         145.8909  135.0606  173.1733 H       1  UNL1        0.2414
@<TRIPOS>BOND
     1    21    22    2
     2    22    19    1
     3    19    20    2
     4    20     1    1
     5     1     2   ar
     6     2     3   ar
     7     3     4   ar
     8     4     5   ar
     9     5     6   ar
    10     5     7    1
    11     7     8    1
    12     8    10    1
    13    10    11    2
    14    10    12    2
    15    10    13    1
    16    13    14   ar
    17    14    15   ar
    18    15    16   ar
    19    16    17   ar
    20    17    18   ar
    21     8     9    1
    22    22    23   am
    23    23    24    1
    24     6     1   ar
    25    18    13   ar
    26     9     4    1
    27    23    25    1
    28    24    26    1
@<TRIPOS>MOLECULE
*****
 26 28 0 0 0
SMALL
GASTEIGER

@<TRIPOS>ATOM
      1 C         139.3333  139.6279  166.9443 C.ar    1  UNL1       -0.0001
      2 C         138.4404  138.4327  166.7888 C.ar    1  UNL1       -0.0003
      3 C         138.3399  137.7390  165.4627 C.ar    1  UNL1       -0.0031
      4 C         139.1322  138.2406  164.2919 C.ar    1  UNL1       -0.0071
      5 C         140.0250  139.4358  164.4474 C.ar    1  UNL1       -0.0071
      6 C         140.1256  140.1295  165.7735 C.ar    1  UNL1       -0.0031
      7 C         140.6808  139.6997  163.1243 C.3     1  UNL1        0.1222
      8 N         140.1933  138.6676  162.1513 N.3     1  UNL1       -0.1466
      9 C         139.2361  137.7658  162.8729 C.3     1  UNL1        0.1222
     10 S         140.5926  138.5567  160.7096 S.O2    1  UNL1        0.0640
     11 O         139.2255  139.0147  160.2956 O.2     1  UNL1       -0.1528
     12 O         141.9597  138.0987  161.1236 O.2     1  UNL1       -0.1528
     13 C         140.9921  138.4457  159.2681 C.ar    1  UNL1        0.1253
     14 C         139.9444  138.4763  158.1950 C.ar    1  UNL1        0.0406
     15 C         140.3438  138.3653  156.7535 C.ar    1  UNL1        0.1003
     16 N         141.7909  138.2238  156.3849 N.ar    1  UNL1       -0.2422
     17 C         142.8386  138.1933  157.4579 C.ar    1  UNL1        0.1003
     18 C         142.4391  138.3042  158.8996 C.ar    1  UNL1        0.0406
     19 C         140.0989  141.6626  168.3669 C.2     1  UNL1        0.0598
     20 C         139.4338  140.3216  168.2704 C.2     1  UNL1        0.0047
     21 O         140.1349  143.8532  169.7632 O.2     1  UNL1       -0.2681
     22 C         140.1994  142.3563  169.6930 C.2     1  UNL1        0.2679
     23 N         140.3644  141.5529  170.9491 N.am    1  UNL1       -0.1934
     24 O         140.4650  142.2466  172.2752 O.3     1  UNL1       -0.2949
     25 H         140.4067  140.5704  170.9030 H       1  UNL1        0.1825
     26 H         140.4059  143.2058  172.1437 H       1  UNL1        0.2414
@<TRIPOS>BOND
     1    21    22    2
     2    22    19    1
     3    19    20    2
     4    20     1    1
     5     1     2   ar
     6     2     3   ar
     7     3     4   ar
     8     4     5   ar
     9     5     6   ar
    10     5     7    1
    11     7     8    1
    12     8    10    1
    13    10    11    2
    14    10    12    2
    15    10    13    1
    16    13    14   ar
    17    14    15   ar
    18    15    16   ar
    19    16    17   ar
    20    17    18   ar
    21     8     9    1
    22    22    23   am
    23    23    24    1
    24     6     1   ar
    25    18    13   ar
    26     9     4    1
    27    23    25    1
    28    24    26    1
