@<TRIPOS>MOLECULE
*****
 33 38 0 0 0
SMALL
GASTEIGER

@<TRIPOS>ATOM
      1 C         142.5709  136.7248  157.7579 C.3     1  UNL1        0.1161
      2 C         143.2945  135.4260  157.5594 C.3     1  UNL1        0.0510
      3 C         142.9405  134.5394  156.4025 C.2     1  UNL1       -0.0044
      4 C         141.8628  134.9516  155.4441 C.2     1  UNL1        0.0689
      5 N         141.7327  133.8789  154.4037 N.2     1  UNL1       -0.2526
      6 C         142.7300  132.8038  154.7191 C.2     1  UNL1        0.0627
      7 C         143.0549  131.5059  154.0410 C.3     1  UNL1        0.0717
      8 C         144.1262  130.6162  154.5983 C.2     1  UNL1       -0.0198
      9 C         144.8727  131.0244  155.8337 C.2     1  UNL1       -0.0042
     10 C         144.5478  132.3223  156.5117 C.2     1  UNL1        0.0006
     11 C         143.4765  133.2120  155.9544 C.2     1  UNL1        0.0111
     12 C         141.1391  136.2504  155.6426 C.3     1  UNL1        0.0948
     13 N         141.4931  137.1370  156.7995 N.3     1  UNL1       -0.2887
     14 H         140.6420  137.2591  157.3482 H       1  UNL1        0.1239
     15 C         140.0614  136.6626  154.6841 C.3     1  UNL1        0.0229
     16 C         140.2938  136.5620  153.2057 C.3     1  UNL1        0.0188
     17 C         139.2160  136.9743  152.2473 C.3     1  UNL1        0.0686
     18 N         137.9058  137.4870  152.7673 N.3     1  UNL1       -0.2975
     19 C         137.6734  137.5876  154.2458 C.3     1  UNL1        0.0686
     20 C         138.7511  137.1754  155.2042 C.3     1  UNL1        0.0188
     21 H         137.1810  136.8726  152.3964 H       1  UNL1        0.1232
     22 C         143.2421  138.4439  161.1725 C.ar    1  UNL1        0.0769
     23 C         143.6974  139.5077  160.2180 C.ar    1  UNL1        0.1171
     24 N         143.5014  138.9932  158.8227 N.ar    1  UNL1       -0.2282
     25 C         142.9250  137.6115  158.9149 C.ar    1  UNL1        0.1318
     26 N         142.7647  137.2720  160.3671 N.ar    1  UNL1       -0.3397
     27 H         142.4087  136.4281  160.7283 H       1  UNL1        0.1671
     28 C         143.2987  138.7199  165.6637 C.ar    1  UNL1        0.0000
     29 C         144.4375  139.2790  164.8636 C.ar    1  UNL1        0.0000
     30 C         144.4187  139.1871  163.3665 C.ar    1  UNL1        0.0015
     31 C         143.2610  138.5359  162.6696 C.ar    1  UNL1        0.0172
     32 C         142.1221  137.9767  163.4698 C.ar    1  UNL1        0.0015
     33 C         142.1410  138.0687  164.9668 C.ar    1  UNL1        0.0000
@<TRIPOS>BOND
     1    28    29   ar
     2    29    30   ar
     3    30    31   ar
     4    31    22    1
     5    22    23   ar
     6    23    24   ar
     7    24    25   ar
     8     1    25    1
     9     1     2    1
    10     2     3    1
    11     3     4    2
    12     4     5    1
    13     5     6    2
    14     6     7    1
    15     7     8    1
    16     8     9    2
    17     9    10    1
    18    10    11    2
    19     4    12    1
    20    12    15    1
    21    15    16    1
    22    16    17    1
    23    17    18    1
    24    18    19    1
    25    19    20    1
    26    12    13    1
    27    25    26   ar
    28    31    32   ar
    29    32    33   ar
    30    33    28   ar
    31    26    22   ar
    32    13     1    1
    33    11     3    1
    34    20    15    1
    35    11     6    1
    36    18    21    1
    37    13    14    1
    38    26    27    1
@<TRIPOS>MOLECULE
*****
 33 38 0 0 0
SMALL
GASTEIGER

@<TRIPOS>ATOM
      1 C         143.2100  143.0692  157.4063 C.3     1  UNL1        0.1161
      2 C         143.2081  143.2284  158.8979 C.3     1  UNL1        0.0510
      3 C         142.1114  144.0017  159.5682 C.2     1  UNL1       -0.0044
      4 C         141.0167  144.6158  158.7469 C.2     1  UNL1        0.0689
      5 N         140.0752  145.3175  159.6802 N.2     1  UNL1       -0.2526
      6 C         140.5880  145.1371  161.0782 C.2     1  UNL1        0.0627
      7 C         140.0716  145.6084  162.4053 C.3     1  UNL1        0.0717
      8 C         140.8136  145.2663  163.6632 C.2     1  UNL1       -0.0198
      9 C         142.0721  144.4530  163.5939 C.2     1  UNL1       -0.0042
     10 C         142.5885  143.9818  162.2668 C.2     1  UNL1        0.0006
     11 C         141.8464  144.3239  161.0090 C.2     1  UNL1        0.0111
     12 C         141.0187  144.4566  157.2553 C.3     1  UNL1        0.0948
     13 N         142.1153  143.6833  156.5851 N.3     1  UNL1       -0.2887
     14 H         142.5635  144.3194  155.9255 H       1  UNL1        0.1239
     15 C         139.9240  145.0707  156.4341 C.3     1  UNL1        0.0229
     16 C         138.8314  144.2081  155.8756 C.3     1  UNL1        0.0188
     17 C         137.7366  144.8223  155.0543 C.3     1  UNL1        0.0686
     18 N         137.7346  146.2991  154.7916 N.3     1  UNL1       -0.2975
     19 C         138.8273  147.1618  155.3501 C.3     1  UNL1        0.0686
     20 C         139.9219  146.5476  156.1713 C.3     1  UNL1        0.0188
     21 H         136.8554  146.6625  155.1596 H       1  UNL1        0.1232
     22 C         146.3685  141.7441  155.5805 C.ar    1  UNL1        0.0769
     23 C         145.6204  140.4679  155.8287 C.ar    1  UNL1        0.1171
     24 N         144.3462  140.8089  156.5429 N.ar    1  UNL1       -0.2282
     25 C         144.3068  142.2959  156.7360 C.ar    1  UNL1        0.1318
     26 N         145.5566  142.8739  156.1412 N.ar    1  UNL1       -0.3397
     27 H         145.8012  143.8274  156.1223 H       1  UNL1        0.1671
     28 C         150.3494  142.1179  153.5159 C.ar    1  UNL1        0.0000
     29 C         149.0803  142.2608  152.7293 C.ar    1  UNL1        0.0000
     30 C         147.7534  142.1362  153.4175 C.ar    1  UNL1        0.0015
     31 C         147.6955  141.8687  154.8923 C.ar    1  UNL1        0.0172
     32 C         148.9647  141.7257  155.6789 C.ar    1  UNL1        0.0015
     33 C         150.2916  141.8503  154.9907 C.ar    1  UNL1        0.0000
@<TRIPOS>BOND
     1    28    29   ar
     2    29    30   ar
     3    30    31   ar
     4    31    22    1
     5    22    23   ar
     6    23    24   ar
     7    24    25   ar
     8     1    25    1
     9     1     2    1
    10     2     3    1
    11     3     4    2
    12     4     5    1
    13     5     6    2
    14     6     7    1
    15     7     8    1
    16     8     9    2
    17     9    10    1
    18    10    11    2
    19     4    12    1
    20    12    15    1
    21    15    16    1
    22    16    17    1
    23    17    18    1
    24    18    19    1
    25    19    20    1
    26    12    13    1
    27    25    26   ar
    28    31    32   ar
    29    32    33   ar
    30    33    28   ar
    31    26    22   ar
    32    13     1    1
    33    11     3    1
    34    20    15    1
    35    11     6    1
    36    18    21    1
    37    13    14    1
    38    26    27    1
@<TRIPOS>MOLECULE
*****
 33 38 0 0 0
SMALL
GASTEIGER

@<TRIPOS>ATOM
      1 C         141.2084  139.9389  160.4837 C.3     1  UNL1        0.1161
      2 C         140.6011  139.0378  161.5177 C.3     1  UNL1        0.0510
      3 C         140.0165  139.6205  162.7702 C.2     1  UNL1       -0.0044
      4 C         140.0393  141.1043  162.9886 C.2     1  UNL1        0.0689
      5 N         139.3918  141.3880  164.3116 N.2     1  UNL1       -0.2526
      6 C         138.9689  140.0795  164.9108 C.2     1  UNL1        0.0627
      7 C         138.2821  139.7416  166.2008 C.3     1  UNL1        0.0717
      8 C         137.9814  138.3113  166.5381 C.2     1  UNL1       -0.0198
      9 C         138.3675  137.2189  165.5854 C.2     1  UNL1       -0.0042
     10 C         139.0543  137.5568  164.2954 C.2     1  UNL1        0.0006
     11 C         139.3550  138.9871  163.9581 C.2     1  UNL1        0.0111
     12 C         140.6467  142.0054  161.9546 C.3     1  UNL1        0.0948
     13 N         141.2312  141.4227  160.7022 N.3     1  UNL1       -0.2887
     14 H         142.2096  141.7097  160.6726 H       1  UNL1        0.1239
     15 C         140.6694  143.4892  162.1731 C.3     1  UNL1        0.0229
     16 C         139.8240  144.3862  161.3184 C.3     1  UNL1        0.0188
     17 C         139.8468  145.8701  161.5369 C.3     1  UNL1        0.0686
     18 N         140.7151  146.4569  162.6101 N.3     1  UNL1       -0.2975
     19 C         141.5606  145.5599  163.4648 C.3     1  UNL1        0.0686
     20 C         141.5378  144.0761  163.2463 C.3     1  UNL1        0.0188
     21 H         140.0983  146.9688  163.2408 H       1  UNL1        0.1232
     22 C         142.2978  137.8308  157.4121 C.ar    1  UNL1        0.0769
     23 C         143.0873  139.0877  157.1957 C.ar    1  UNL1        0.1171
     24 N         142.7753  140.0304  158.3200 N.ar    1  UNL1       -0.2282
     25 C         141.7930  139.3561  159.2312 C.ar    1  UNL1        0.1318
     26 N         141.4979  137.9967  158.6701 N.ar    1  UNL1       -0.3397
     27 H         140.8865  137.3303  159.0592 H       1  UNL1        0.1671
     28 C         142.3243  134.1999  154.7539 C.ar    1  UNL1        0.0000
     29 C         141.0988  135.0609  154.8352 C.ar    1  UNL1        0.0000
     30 C         141.0900  136.2712  155.7213 C.ar    1  UNL1        0.0015
     31 C         142.3067  136.6205  156.5260 C.ar    1  UNL1        0.0172
     32 C         143.5322  135.7594  156.4447 C.ar    1  UNL1        0.0015
     33 C         143.5410  134.5492  155.5587 C.ar    1  UNL1        0.0000
@<TRIPOS>BOND
     1    28    29   ar
     2    29    30   ar
     3    30    31   ar
     4    31    22    1
     5    22    23   ar
     6    23    24   ar
     7    24    25   ar
     8     1    25    1
     9     1     2    1
    10     2     3    1
    11     3     4    2
    12     4     5    1
    13     5     6    2
    14     6     7    1
    15     7     8    1
    16     8     9    2
    17     9    10    1
    18    10    11    2
    19     4    12    1
    20    12    15    1
    21    15    16    1
    22    16    17    1
    23    17    18    1
    24    18    19    1
    25    19    20    1
    26    12    13    1
    27    25    26   ar
    28    31    32   ar
    29    32    33   ar
    30    33    28   ar
    31    26    22   ar
    32    13     1    1
    33    11     3    1
    34    20    15    1
    35    11     6    1
    36    18    21    1
    37    13    14    1
    38    26    27    1
@<TRIPOS>MOLECULE
*****
 33 38 0 0 0
SMALL
GASTEIGER

@<TRIPOS>ATOM
      1 C         140.9797  144.9685  157.5458 C.3     1  UNL1        0.1161
      2 C         140.9034  145.1819  159.0286 C.3     1  UNL1        0.0510
      3 C         141.7199  144.3274  159.9523 C.2     1  UNL1       -0.0044
      4 C         142.6128  143.2597  159.3931 C.2     1  UNL1        0.0689
      5 N         143.2951  142.5777  160.5417 N.2     1  UNL1       -0.2526
      6 C         142.8240  143.2240  161.8108 C.2     1  UNL1        0.0627
      7 C         143.1557  142.9674  163.2509 C.3     1  UNL1        0.0717
      8 C         142.5138  143.7923  164.3268 C.2     1  UNL1       -0.0198
      9 C         141.5403  144.8738  163.9625 C.2     1  UNL1       -0.0042
     10 C         141.2086  145.1303  162.5223 C.2     1  UNL1        0.0006
     11 C         141.8504  144.3054  161.4464 C.2     1  UNL1        0.0111
     12 C         142.6891  143.0463  157.9103 C.3     1  UNL1        0.0948
     13 N         141.8726  143.9008  156.9867 N.3     1  UNL1       -0.2887
     14 H         141.2768  143.2694  156.4511 H       1  UNL1        0.1239
     15 C         143.5820  141.9786  157.3512 C.3     1  UNL1        0.0229
     16 C         143.0401  140.6023  157.1022 C.3     1  UNL1        0.0188
     17 C         143.9331  139.5345  156.5430 C.3     1  UNL1        0.0686
     18 N         145.3679  139.8431  156.2329 N.3     1  UNL1       -0.2975
     19 C         145.9097  141.2195  156.4819 C.3     1  UNL1        0.0686
     20 C         145.0168  142.2872  157.0411 C.3     1  UNL1        0.0188
     21 H         145.5031  139.6485  155.2408 H       1  UNL1        0.1232
     22 C         139.3733  147.7128  155.3201 C.ar    1  UNL1        0.0769
     23 C         138.4399  146.5631  155.0816 C.ar    1  UNL1        0.1171
     24 N         138.9281  145.3951  155.8863 N.ar    1  UNL1       -0.2282
     25 C         140.1631  145.8230  156.6221 C.ar    1  UNL1        0.1318
     26 N         140.4383  147.2554  156.2723 N.ar    1  UNL1       -0.3397
     27 H         141.1865  147.7998  156.6085 H       1  UNL1        0.1671
     28 C         139.0375  151.8141  153.4990 C.ar    1  UNL1        0.0000
     29 C         139.5849  150.6765  152.6891 C.ar    1  UNL1        0.0000
     30 C         139.6968  149.3094  153.2961 C.ar    1  UNL1        0.0015
     31 C         139.2613  149.0800  154.7131 C.ar    1  UNL1        0.0172
     32 C         138.7139  150.2177  155.5230 C.ar    1  UNL1        0.0015
     33 C         138.6020  151.5847  154.9159 C.ar    1  UNL1        0.0000
@<TRIPOS>BOND
     1    28    29   ar
     2    29    30   ar
     3    30    31   ar
     4    31    22    1
     5    22    23   ar
     6    23    24   ar
     7    24    25   ar
     8     1    25    1
     9     1     2    1
    10     2     3    1
    11     3     4    2
    12     4     5    1
    13     5     6    2
    14     6     7    1
    15     7     8    1
    16     8     9    2
    17     9    10    1
    18    10    11    2
    19     4    12    1
    20    12    15    1
    21    15    16    1
    22    16    17    1
    23    17    18    1
    24    18    19    1
    25    19    20    1
    26    12    13    1
    27    25    26   ar
    28    31    32   ar
    29    32    33   ar
    30    33    28   ar
    31    26    22   ar
    32    13     1    1
    33    11     3    1
    34    20    15    1
    35    11     6    1
    36    18    21    1
    37    13    14    1
    38    26    27    1
@<TRIPOS>MOLECULE
*****
 33 38 0 0 0
SMALL
GASTEIGER

@<TRIPOS>ATOM
      1 C         142.4064  139.7701  158.3155 C.3     1  UNL1        0.1161
      2 C         143.1102  139.7216  159.6393 C.3     1  UNL1        0.0510
      3 C         143.3844  140.9910  160.3899 C.2     1  UNL1       -0.0044
      4 C         142.9548  142.3089  159.8167 C.2     1  UNL1        0.0689
      5 N         143.3591  143.3865  160.7786 N.2     1  UNL1       -0.2526
      6 C         144.0385  142.7346  161.9462 C.2     1  UNL1        0.0627
      7 C         144.6450  143.2979  163.1972 C.3     1  UNL1        0.0717
      8 C         145.2670  142.3806  164.2079 C.2     1  UNL1       -0.0198
      9 C         145.2827  140.9001  163.9677 C.2     1  UNL1       -0.0042
     10 C         144.6762  140.3368  162.7167 C.2     1  UNL1        0.0006
     11 C         144.0541  141.2541  161.7060 C.2     1  UNL1        0.0111
     12 C         142.2510  142.3574  158.4929 C.3     1  UNL1        0.0948
     13 N         141.9768  141.0880  157.7423 N.3     1  UNL1       -0.2887
     14 H         142.4343  141.1776  156.8351 H       1  UNL1        0.1239
     15 C         141.8215  143.6753  157.9197 C.3     1  UNL1        0.0229
     16 C         142.4636  144.1934  156.6671 C.3     1  UNL1        0.0188
     17 C         142.0339  145.5114  156.0939 C.3     1  UNL1        0.0686
     18 N         140.9622  146.3111  156.7734 N.3     1  UNL1       -0.2975
     19 C         140.3201  145.7930  158.0261 C.3     1  UNL1        0.0686
     20 C         140.7497  144.4752  158.5992 C.3     1  UNL1        0.0188
     21 H         140.2149  146.4412  156.0915 H       1  UNL1        0.1232
     22 C         142.3481  136.2536  156.6735 C.ar    1  UNL1        0.0769
     23 C         141.0724  136.8406  156.1466 C.ar    1  UNL1        0.1171
     24 N         140.9389  138.2294  156.6975 N.ar    1  UNL1       -0.2282
     25 C         142.1321  138.5006  157.5649 C.ar    1  UNL1        0.1318
     26 N         143.0032  137.2795  157.5501 N.ar    1  UNL1       -0.3397
     27 H         143.8551  137.1705  158.0313 H       1  UNL1        0.1671
     28 C         143.9325  132.1373  155.7812 C.ar    1  UNL1        0.0000
     29 C         144.2247  132.7831  157.1031 C.ar    1  UNL1        0.0000
     30 C         143.6966  134.1552  157.4005 C.ar    1  UNL1        0.0015
     31 C         142.8763  134.8814  156.3760 C.ar    1  UNL1        0.0172
     32 C         142.5841  134.2356  155.0541 C.ar    1  UNL1        0.0015
     33 C         143.1122  132.8636  154.7567 C.ar    1  UNL1        0.0000
@<TRIPOS>BOND
     1    28    29   ar
     2    29    30   ar
     3    30    31   ar
     4    31    22    1
     5    22    23   ar
     6    23    24   ar
     7    24    25   ar
     8     1    25    1
     9     1     2    1
    10     2     3    1
    11     3     4    2
    12     4     5    1
    13     5     6    2
    14     6     7    1
    15     7     8    1
    16     8     9    2
    17     9    10    1
    18    10    11    2
    19     4    12    1
    20    12    15    1
    21    15    16    1
    22    16    17    1
    23    17    18    1
    24    18    19    1
    25    19    20    1
    26    12    13    1
    27    25    26   ar
    28    31    32   ar
    29    32    33   ar
    30    33    28   ar
    31    26    22   ar
    32    13     1    1
    33    11     3    1
    34    20    15    1
    35    11     6    1
    36    18    21    1
    37    13    14    1
    38    26    27    1
@<TRIPOS>MOLECULE
*****
 33 38 0 0 0
SMALL
GASTEIGER

@<TRIPOS>ATOM
      1 C         140.4205  143.6446  159.5443 C.3     1  UNL1        0.1161
      2 C         141.3755  144.2607  160.5232 C.3     1  UNL1        0.0510
      3 C         141.7232  143.5357  161.7895 C.2     1  UNL1       -0.0044
      4 C         141.1159  142.1946  162.0768 C.2     1  UNL1        0.0689
      5 N         141.6435  141.7204  163.3985 N.2     1  UNL1       -0.2526
      6 C         142.5769  142.7685  163.9280 C.2     1  UNL1        0.0627
      7 C         143.3884  142.8461  165.1871 C.3     1  UNL1        0.0717
      8 C         144.2491  144.0457  165.4518 C.2     1  UNL1       -0.0198
      9 C         144.2984  145.1676  164.4574 C.2     1  UNL1       -0.0042
     10 C         143.4869  145.0900  163.1983 C.2     1  UNL1        0.0006
     11 C         142.6262  143.8904  162.9336 C.2     1  UNL1        0.0111
     12 C         140.1608  141.5785  161.0979 C.3     1  UNL1        0.0948
     13 N         139.8131  142.3034  159.8316 N.3     1  UNL1       -0.2887
     14 H         138.8014  142.4330  159.8348 H       1  UNL1        0.1239
     15 C         139.5535  140.2374  161.3852 C.3     1  UNL1        0.0229
     16 C         140.4249  139.0977  161.8231 C.3     1  UNL1        0.0188
     17 C         139.8174  137.7566  162.1104 C.3     1  UNL1        0.0686
     18 N         138.3387  137.5552  161.9598 N.3     1  UNL1       -0.2975
     19 C         137.4673  138.6949  161.5219 C.3     1  UNL1        0.0686
     20 C         138.0747  140.0359  161.2346 C.3     1  UNL1        0.0188
     21 H         137.9892  137.2494  162.8680 H       1  UNL1        0.1232
     22 C         139.6143  146.1416  156.6842 C.ar    1  UNL1        0.0769
     23 C         139.4613  144.8290  155.9746 C.ar    1  UNL1        0.1171
     24 N         139.7447  143.7338  156.9596 N.ar    1  UNL1       -0.2282
     25 C         140.0728  144.3696  158.2779 C.ar    1  UNL1        0.1318
     26 N         139.9922  145.8577  158.1078 N.ar    1  UNL1       -0.3397
     27 H         140.1582  146.5300  158.8076 H       1  UNL1        0.1671
     28 C         139.0403  150.2161  154.8622 C.ar    1  UNL1        0.0000
     29 C         139.7994  149.1603  154.1145 C.ar    1  UNL1        0.0000
     30 C         139.9907  147.8022  154.7218 C.ar    1  UNL1        0.0015
     31 C         139.4229  147.4998  156.0769 C.ar    1  UNL1        0.0172
     32 C         138.6638  148.5556  156.8246 C.ar    1  UNL1        0.0015
     33 C         138.4725  149.9137  156.2173 C.ar    1  UNL1        0.0000
@<TRIPOS>BOND
     1    28    29   ar
     2    29    30   ar
     3    30    31   ar
     4    31    22    1
     5    22    23   ar
     6    23    24   ar
     7    24    25   ar
     8     1    25    1
     9     1     2    1
    10     2     3    1
    11     3     4    2
    12     4     5    1
    13     5     6    2
    14     6     7    1
    15     7     8    1
    16     8     9    2
    17     9    10    1
    18    10    11    2
    19     4    12    1
    20    12    15    1
    21    15    16    1
    22    16    17    1
    23    17    18    1
    24    18    19    1
    25    19    20    1
    26    12    13    1
    27    25    26   ar
    28    31    32   ar
    29    32    33   ar
    30    33    28   ar
    31    26    22   ar
    32    13     1    1
    33    11     3    1
    34    20    15    1
    35    11     6    1
    36    18    21    1
    37    13    14    1
    38    26    27    1
@<TRIPOS>MOLECULE
*****
 33 38 0 0 0
SMALL
GASTEIGER

@<TRIPOS>ATOM
      1 C         141.3097  138.8786  158.5032 C.3     1  UNL1        0.1161
      2 C         142.3799  139.9256  158.4113 C.3     1  UNL1        0.0510
      3 C         143.4452  139.8189  157.3608 C.2     1  UNL1       -0.0044
      4 C         143.4403  138.6653  156.4022 C.2     1  UNL1        0.0689
      5 N         144.6115  138.8251  155.4786 N.2     1  UNL1       -0.2526
      6 C         145.3401  140.0776  155.8665 C.2     1  UNL1        0.0627
      7 C         146.5668  140.7380  155.3107 C.3     1  UNL1        0.0717
      8 C         147.0727  142.0128  155.9182 C.2     1  UNL1       -0.0198
      9 C         146.3519  142.6270  157.0814 C.2     1  UNL1       -0.0042
     10 C         145.1252  141.9665  157.6372 C.2     1  UNL1        0.0006
     11 C         144.6193  140.6918  157.0297 C.2     1  UNL1        0.0111
     12 C         142.3701  137.6182  156.4941 C.3     1  UNL1        0.0948
     13 N         141.3048  137.7249  157.5446 N.3     1  UNL1       -0.2887
     14 H         141.3589  136.8752  158.1062 H       1  UNL1        0.1239
     15 C         142.3652  136.4646  155.5355 C.3     1  UNL1        0.0229
     16 C         141.6802  136.5957  154.2076 C.3     1  UNL1        0.0188
     17 C         141.6754  135.4419  153.2489 C.3     1  UNL1        0.0686
     18 N         142.3555  134.1571  153.6183 N.3     1  UNL1       -0.2975
     19 C         143.0406  134.0259  154.9463 C.3     1  UNL1        0.0686
     20 C         143.0455  135.1796  155.9048 C.3     1  UNL1        0.0188
     21 H         143.0622  133.9821  152.9039 H       1  UNL1        0.1232
     22 C         139.1118  138.9918  161.7004 C.ar    1  UNL1        0.0769
     23 C         138.0982  139.3072  160.6406 C.ar    1  UNL1        0.1171
     24 N         138.7981  139.3031  159.3140 N.ar    1  UNL1       -0.2282
     25 C         140.2443  138.9853  159.5539 C.ar    1  UNL1        0.1318
     26 N         140.4382  138.7929  161.0287 N.ar    1  UNL1       -0.3397
     27 H         141.2870  138.5745  161.4772 H       1  UNL1        0.1671
     28 C         138.3137  138.6947  166.1191 C.ar    1  UNL1        0.0000
     29 C         138.7442  137.4801  165.3514 C.ar    1  UNL1        0.0000
     30 C         139.0103  137.5792  163.8785 C.ar    1  UNL1        0.0015
     31 C         138.8457  138.8928  163.1734 C.ar    1  UNL1        0.0172
     32 C         138.4152  140.1074  163.9410 C.ar    1  UNL1        0.0015
     33 C         138.1491  140.0083  165.4139 C.ar    1  UNL1        0.0000
@<TRIPOS>BOND
     1    28    29   ar
     2    29    30   ar
     3    30    31   ar
     4    31    22    1
     5    22    23   ar
     6    23    24   ar
     7    24    25   ar
     8     1    25    1
     9     1     2    1
    10     2     3    1
    11     3     4    2
    12     4     5    1
    13     5     6    2
    14     6     7    1
    15     7     8    1
    16     8     9    2
    17     9    10    1
    18    10    11    2
    19     4    12    1
    20    12    15    1
    21    15    16    1
    22    16    17    1
    23    17    18    1
    24    18    19    1
    25    19    20    1
    26    12    13    1
    27    25    26   ar
    28    31    32   ar
    29    32    33   ar
    30    33    28   ar
    31    26    22   ar
    32    13     1    1
    33    11     3    1
    34    20    15    1
    35    11     6    1
    36    18    21    1
    37    13    14    1
    38    26    27    1
@<TRIPOS>MOLECULE
*****
 33 38 0 0 0
SMALL
GASTEIGER

@<TRIPOS>ATOM
      1 C         139.6286  140.0507  157.8333 C.3     1  UNL1        0.1161
      2 C         139.0868  139.9930  159.2308 C.3     1  UNL1        0.0510
      3 C         138.9237  141.2552  160.0247 C.2     1  UNL1       -0.0044
      4 C         139.3025  142.5751  159.4210 C.2     1  UNL1        0.0689
      5 N         139.0325  143.6443  160.4377 N.2     1  UNL1       -0.2526
      6 C         138.4869  142.9853  161.6698 C.2     1  UNL1        0.0627
      7 C         138.0426  143.5390  162.9911 C.3     1  UNL1        0.0717
      8 C         137.5310  142.6161  164.0572 C.2     1  UNL1       -0.0198
      9 C         137.4638  141.1395  163.8019 C.2     1  UNL1       -0.0042
     10 C         137.9081  140.5858  162.4806 C.2     1  UNL1        0.0006
     11 C         138.4196  141.5087  161.4145 C.2     1  UNL1        0.0111
     12 C         139.8443  142.6328  158.0234 C.3     1  UNL1        0.0948
     13 N         140.0074  141.3705  157.2296 N.3     1  UNL1       -0.2887
     14 H         140.9936  141.3067  156.9772 H       1  UNL1        0.1239
     15 C         140.2231  143.9526  157.4197 C.3     1  UNL1        0.0229
     16 C         141.4914  144.6336  157.8409 C.3     1  UNL1        0.0188
     17 C         141.8702  145.9535  157.2371 C.3     1  UNL1        0.0686
     18 N         140.9806  146.5924  156.2122 N.3     1  UNL1       -0.2975
     19 C         139.7122  145.9113  155.7910 C.3     1  UNL1        0.0686
     20 C         139.3335  144.5915  156.3948 C.3     1  UNL1        0.0188
     21 H         141.5426  146.7151  155.3699 H       1  UNL1        0.1232
     22 C         140.7113  136.7314  156.1375 C.ar    1  UNL1        0.0769
     23 C         139.3739  136.9606  155.4983 C.ar    1  UNL1        0.1171
     24 N         138.8055  138.2319  156.0557 N.ar    1  UNL1       -0.2282
     25 C         139.7917  138.7884  157.0394 C.ar    1  UNL1        0.1318
     26 N         140.9695  137.8610  157.0900 N.ar    1  UNL1       -0.3397
     27 H         141.7713  137.9740  157.6501 H       1  UNL1        0.1671
     28 C         143.4655  133.2637  155.3381 C.ar    1  UNL1        0.0000
     29 C         142.2683  133.4878  154.4627 C.ar    1  UNL1        0.0000
     30 C         141.3503  134.6437  154.7292 C.ar    1  UNL1        0.0015
     31 C         141.6295  135.5754  155.8711 C.ar    1  UNL1        0.0172
     32 C         142.8267  135.3513  156.7465 C.ar    1  UNL1        0.0015
     33 C         143.7447  134.1954  156.4800 C.ar    1  UNL1        0.0000
@<TRIPOS>BOND
     1    28    29   ar
     2    29    30   ar
     3    30    31   ar
     4    31    22    1
     5    22    23   ar
     6    23    24   ar
     7    24    25   ar
     8     1    25    1
     9     1     2    1
    10     2     3    1
    11     3     4    2
    12     4     5    1
    13     5     6    2
    14     6     7    1
    15     7     8    1
    16     8     9    2
    17     9    10    1
    18    10    11    2
    19     4    12    1
    20    12    15    1
    21    15    16    1
    22    16    17    1
    23    17    18    1
    24    18    19    1
    25    19    20    1
    26    12    13    1
    27    25    26   ar
    28    31    32   ar
    29    32    33   ar
    30    33    28   ar
    31    26    22   ar
    32    13     1    1
    33    11     3    1
    34    20    15    1
    35    11     6    1
    36    18    21    1
    37    13    14    1
    38    26    27    1
@<TRIPOS>MOLECULE
*****
 33 38 0 0 0
SMALL
GASTEIGER

@<TRIPOS>ATOM
      1 C         140.5575  144.0821  160.1899 C.3     1  UNL1        0.1161
      2 C         140.0199  145.1350  159.2666 C.3     1  UNL1        0.0510
      3 C         140.5317  145.2313  157.8599 C.2     1  UNL1       -0.0044
      4 C         141.5811  144.2747  157.3766 C.2     1  UNL1        0.0689
      5 N         141.8911  144.6101  155.9478 N.2     1  UNL1       -0.2526
      6 C         141.0334  145.7739  155.5482 C.2     1  UNL1        0.0627
      7 C         140.9089  146.5337  154.2609 C.3     1  UNL1        0.0717
      8 C         139.9442  147.6774  154.1554 C.2     1  UNL1       -0.0198
      9 C         139.1040  148.0614  155.3372 C.2     1  UNL1       -0.0042
     10 C         139.2285  147.3016  156.6245 C.2     1  UNL1        0.0006
     11 C         140.1932  146.1579  156.7300 C.2     1  UNL1        0.0111
     12 C         142.1187  143.2218  158.2998 C.3     1  UNL1        0.0948
     13 N         141.6069  143.1255  159.7065 N.3     1  UNL1       -0.2887
     14 H         142.4130  143.2374  160.3214 H       1  UNL1        0.1239
     15 C         143.1681  142.2652  157.8165 C.3     1  UNL1        0.0229
     16 C         144.5951  142.7126  157.7017 C.3     1  UNL1        0.0188
     17 C         145.6445  141.7559  157.2182 C.3     1  UNL1        0.0686
     18 N         145.2667  140.3518  156.8496 N.3     1  UNL1       -0.2975
     19 C         143.8396  139.9044  156.9644 C.3     1  UNL1        0.0686
     20 C         142.7903  140.8610  157.4478 C.3     1  UNL1        0.0188
     21 H         145.8181  139.7329  157.4440 H       1  UNL1        0.1232
     22 C         139.6755  143.2243  163.8712 C.ar    1  UNL1        0.0769
     23 C         138.8409  144.4512  163.6515 C.ar    1  UNL1        0.1171
     24 N         139.0698  144.9219  162.2458 N.ar    1  UNL1       -0.2282
     25 C         140.0457  143.9859  161.5967 C.ar    1  UNL1        0.1318
     26 N         140.4201  142.9367  162.6012 N.ar    1  UNL1       -0.3397
     27 H         141.0449  142.1904  162.4530 H       1  UNL1        0.1671
     28 C         139.9051  140.8273  167.6727 C.ar    1  UNL1        0.0000
     29 C         140.4362  142.2296  167.6371 C.ar    1  UNL1        0.0000
     30 C         140.3596  143.0286  166.3699 C.ar    1  UNL1        0.0015
     31 C         139.7520  142.4252  165.1384 C.ar    1  UNL1        0.0172
     32 C         139.2210  141.0229  165.1739 C.ar    1  UNL1        0.0015
     33 C         139.2975  140.2239  166.4411 C.ar    1  UNL1        0.0000
@<TRIPOS>BOND
     1    28    29   ar
     2    29    30   ar
     3    30    31   ar
     4    31    22    1
     5    22    23   ar
     6    23    24   ar
     7    24    25   ar
     8     1    25    1
     9     1     2    1
    10     2     3    1
    11     3     4    2
    12     4     5    1
    13     5     6    2
    14     6     7    1
    15     7     8    1
    16     8     9    2
    17     9    10    1
    18    10    11    2
    19     4    12    1
    20    12    15    1
    21    15    16    1
    22    16    17    1
    23    17    18    1
    24    18    19    1
    25    19    20    1
    26    12    13    1
    27    25    26   ar
    28    31    32   ar
    29    32    33   ar
    30    33    28   ar
    31    26    22   ar
    32    13     1    1
    33    11     3    1
    34    20    15    1
    35    11     6    1
    36    18    21    1
    37    13    14    1
    38    26    27    1
