@<TRIPOS>MOLECULE
*****
 21 22 0 0 0
SMALL
GASTEIGER

@<TRIPOS>ATOM
      1 N         140.5316  139.9896  167.7210 N.am    1  UNL1       -0.2763
      2 C         139.1953  139.4587  167.2938 C.2     1  UNL1        0.2490
      3 O         138.1628  139.1091  168.3242 O.2     1  UNL1       -0.2699
      4 C         138.8915  139.2775  165.8360 C.ar    1  UNL1        0.0545
      5 C         139.1932  137.9709  165.1638 C.ar    1  UNL1        0.0054
      6 C         138.8894  137.7897  163.7062 C.ar    1  UNL1        0.0124
      7 C         138.2839  138.9151  162.9207 C.ar    1  UNL1        0.0682
      8 CL        137.9801  138.7338  161.4630 Cl      1  UNL1       -0.0814
      9 C         137.9822  140.2216  163.5929 C.ar    1  UNL1        0.0683
     10 CL        137.3767  141.3470  162.8074 Cl      1  UNL1       -0.0814
     11 C         138.2860  140.4028  165.0506 C.ar    1  UNL1        0.0168
     12 C         141.5641  140.3392  166.6906 C.3     1  UNL1        0.0927
     13 C         142.5545  139.3934  166.0787 C.3     1  UNL1        0.0383
     14 C         143.3900  140.1656  165.1011 C.3     1  UNL1        0.0704
     15 N         142.9159  141.5887  165.1089 N.3     1  UNL1       -0.2960
     16 C         141.7874  141.6959  166.0912 C.3     1  UNL1        0.0887
     17 H         142.5907  141.8503  164.1782 H       1  UNL1        0.1233
     18 C         140.8354  140.1708  169.1788 C.3     1  UNL1        0.0936
     19 C         143.1570  141.1005  169.8826 C.3     1  UNL1        0.0018
     20 C         142.2268  139.9398  169.6893 C.3     1  UNL1        0.0199
     21 C         142.6879  138.5481  170.0065 C.3     1  UNL1        0.0018
@<TRIPOS>BOND
     1    19    20    1
     2    20    21    1
     3    20    18    1
     4    18     1    1
     5     1     2   am
     6     2     3    2
     7     2     4    1
     8     4     5   ar
     9     5     6   ar
    10     6     7   ar
    11     7     8    1
    12     7     9   ar
    13     9    10    1
    14     9    11   ar
    15    12     1    1
    16    12    13    1
    17    13    14    1
    18    14    15    1
    19    15    16    1
    20    11     4   ar
    21    16    12    1
    22    15    17    1
@<TRIPOS>MOLECULE
*****
 21 22 0 0 0
SMALL
GASTEIGER

@<TRIPOS>ATOM
      1 N         140.2109  141.1128  167.7629 N.am    1  UNL1       -0.2763
      2 C         139.3247  139.9655  167.3779 C.2     1  UNL1        0.2490
      3 O         138.5313  139.2455  168.4277 O.2     1  UNL1       -0.2699
      4 C         139.2319  139.5380  165.9431 C.ar    1  UNL1        0.0545
      5 C         138.2044  140.1555  165.0415 C.ar    1  UNL1        0.0054
      6 C         138.1117  139.7280  163.6067 C.ar    1  UNL1        0.0124
      7 C         139.0465  138.6831  163.0735 C.ar    1  UNL1        0.0682
      8 CL        138.9537  138.2557  161.6386 Cl      1  UNL1       -0.0814
      9 C         140.0740  138.0657  163.9750 C.ar    1  UNL1        0.0683
     10 CL        141.0088  137.0208  163.4418 Cl      1  UNL1       -0.0814
     11 C         140.1667  138.4931  165.4098 C.ar    1  UNL1        0.0168
     12 C         141.0044  141.8327  166.7131 C.3     1  UNL1        0.0927
     13 C         140.5376  143.0082  165.9066 C.3     1  UNL1        0.0383
     14 C         141.6487  143.4055  164.9805 C.3     1  UNL1        0.0704
     15 N         142.8022  142.4757  165.2146 N.3     1  UNL1       -0.2960
     16 C         142.4039  141.5036  166.2854 C.3     1  UNL1        0.0887
     17 H         143.6193  143.0067  165.5157 H       1  UNL1        0.1233
     18 C         140.3037  141.5402  169.1978 C.3     1  UNL1        0.0936
     19 C         142.5711  142.6967  169.7184 C.3     1  UNL1        0.0018
     20 C         141.0807  142.7694  169.5654 C.3     1  UNL1        0.0199
     21 C         140.3674  144.0714  169.7801 C.3     1  UNL1        0.0018
@<TRIPOS>BOND
     1    19    20    1
     2    20    21    1
     3    20    18    1
     4    18     1    1
     5     1     2   am
     6     2     3    2
     7     2     4    1
     8     4     5   ar
     9     5     6   ar
    10     6     7   ar
    11     7     8    1
    12     7     9   ar
    13     9    10    1
    14     9    11   ar
    15    12     1    1
    16    12    13    1
    17    13    14    1
    18    14    15    1
    19    15    16    1
    20    11     4   ar
    21    16    12    1
    22    15    17    1
@<TRIPOS>MOLECULE
*****
 21 22 0 0 0
SMALL
GASTEIGER

@<TRIPOS>ATOM
      1 N         141.8381  139.9942  167.8028 N.am    1  UNL1       -0.2763
      2 C         140.3470  139.8963  167.6731 C.2     1  UNL1        0.2490
      3 O         139.4963  139.7378  168.8984 O.2     1  UNL1       -0.2699
      4 C         139.7064  139.9569  166.3181 C.ar    1  UNL1        0.0545
      5 C         139.2132  141.2671  165.7796 C.ar    1  UNL1        0.0054
      6 C         138.5727  141.3277  164.4246 C.ar    1  UNL1        0.0124
      7 C         138.4253  140.0780  163.6082 C.ar    1  UNL1        0.0682
      8 CL        137.7847  140.1386  162.2531 Cl      1  UNL1       -0.0814
      9 C         138.9185  138.7678  164.1467 C.ar    1  UNL1        0.0683
     10 CL        138.7711  137.5181  163.3302 Cl      1  UNL1       -0.0814
     11 C         139.5590  138.7072  165.5017 C.ar    1  UNL1        0.0168
     12 C         142.6887  140.1527  166.5776 C.3     1  UNL1        0.0927
     13 C         143.0616  141.4508  165.9249 C.3     1  UNL1        0.0383
     14 C         143.9192  141.1413  164.7338 C.3     1  UNL1        0.0704
     15 N         144.0763  139.6519  164.6503 N.3     1  UNL1       -0.2960
     16 C         143.3159  139.0409  165.7898 C.3     1  UNL1        0.0887
     17 H         145.0632  139.4035  164.7200 H       1  UNL1        0.1233
     18 C         142.4787  139.9336  169.1579 C.3     1  UNL1        0.0936
     19 C         141.7298  141.4206  171.1523 C.3     1  UNL1        0.0018
     20 C         142.6270  141.1834  169.9739 C.3     1  UNL1        0.0199
     21 C         143.6726  142.1961  169.6115 C.3     1  UNL1        0.0018
@<TRIPOS>BOND
     1    19    20    1
     2    20    21    1
     3    20    18    1
     4    18     1    1
     5     1     2   am
     6     2     3    2
     7     2     4    1
     8     4     5   ar
     9     5     6   ar
    10     6     7   ar
    11     7     8    1
    12     7     9   ar
    13     9    10    1
    14     9    11   ar
    15    12     1    1
    16    12    13    1
    17    13    14    1
    18    14    15    1
    19    15    16    1
    20    11     4   ar
    21    16    12    1
    22    15    17    1
@<TRIPOS>MOLECULE
*****
 21 22 0 0 0
SMALL
GASTEIGER

@<TRIPOS>ATOM
      1 N         141.7017  140.2866  166.7935 N.am    1  UNL1       -0.2763
      2 C         142.0018  141.6251  166.1866 C.2     1  UNL1        0.2490
      3 O         143.3429  142.2620  166.4006 O.2     1  UNL1       -0.2699
      4 C         140.9607  142.3268  165.3655 C.ar    1  UNL1        0.0545
      5 C         140.7950  141.9861  163.9142 C.ar    1  UNL1        0.0054
      6 C         139.7540  142.6878  163.0933 C.ar    1  UNL1        0.0124
      7 C         138.8788  143.7301  163.7237 C.ar    1  UNL1        0.0682
      8 CL        137.8377  144.4318  162.9027 Cl      1  UNL1       -0.0814
      9 C         139.0445  144.0708  165.1750 C.ar    1  UNL1        0.0683
     10 CL        138.1692  145.1131  165.8055 Cl      1  UNL1       -0.0814
     11 C         140.0855  143.3691  165.9960 C.ar    1  UNL1        0.0168
     12 C         140.3605  139.6498  166.5795 C.3     1  UNL1        0.0927
     13 C         139.1719  139.7715  167.4863 C.3     1  UNL1        0.0383
     14 C         138.0493  138.9763  166.8883 C.3     1  UNL1        0.0704
     15 N         138.5442  138.3632  165.6119 N.3     1  UNL1       -0.2960
     16 C         139.9726  138.7794  165.4210 C.3     1  UNL1        0.0887
     17 H         137.9801  138.6923  164.8284 H       1  UNL1        0.1233
     18 C         142.7427  139.5850  167.6145 C.3     1  UNL1        0.0936
     19 C         142.5471  138.6267  170.0214 C.3     1  UNL1        0.0018
     20 C         142.7871  139.7860  169.1003 C.3     1  UNL1        0.0199
     21 C         143.0715  141.1462  169.6649 C.3     1  UNL1        0.0018
@<TRIPOS>BOND
     1    19    20    1
     2    20    21    1
     3    20    18    1
     4    18     1    1
     5     1     2   am
     6     2     3    2
     7     2     4    1
     8     4     5   ar
     9     5     6   ar
    10     6     7   ar
    11     7     8    1
    12     7     9   ar
    13     9    10    1
    14     9    11   ar
    15    12     1    1
    16    12    13    1
    17    13    14    1
    18    14    15    1
    19    15    16    1
    20    11     4   ar
    21    16    12    1
    22    15    17    1
@<TRIPOS>MOLECULE
*****
 21 22 0 0 0
SMALL
GASTEIGER

@<TRIPOS>ATOM
      1 N         141.7266  142.0764  164.1504 N.am    1  UNL1       -0.2763
      2 C         141.8733  140.7330  164.8015 C.2     1  UNL1        0.2490
      3 O         143.2014  140.0359  164.7918 O.2     1  UNL1       -0.2699
      4 C         140.6918  140.0867  165.4622 C.ar    1  UNL1        0.0545
      5 C         139.8098  139.1590  164.6803 C.ar    1  UNL1        0.0054
      6 C         138.6284  138.5128  165.3410 C.ar    1  UNL1        0.0124
      7 C         138.3290  138.7943  166.7836 C.ar    1  UNL1        0.0682
      8 CL        137.1475  138.1480  167.4444 Cl      1  UNL1       -0.0814
      9 C         139.2110  139.7220  167.5655 C.ar    1  UNL1        0.0683
     10 CL        138.9115  140.0035  169.0081 Cl      1  UNL1       -0.0814
     11 C         140.3924  140.3682  166.9048 C.ar    1  UNL1        0.0168
     12 C         140.3985  142.7735  164.1601 C.3     1  UNL1        0.0927
     13 C         139.3207  142.6316  163.1266 C.3     1  UNL1        0.0383
     14 C         138.1711  143.5053  163.5327 C.3     1  UNL1        0.0704
     15 N         138.5384  144.1873  164.8172 N.3     1  UNL1       -0.2960
     16 C         139.9150  143.7350  165.2050 C.3     1  UNL1        0.0887
     17 H         137.8723  143.9333  165.5467 H       1  UNL1        0.1233
     18 C         142.9081  142.7226  163.4897 C.3     1  UNL1        0.0936
     19 C         143.6171  145.2146  163.6824 C.3     1  UNL1        0.0018
     20 C         143.6637  143.8071  164.1989 C.3     1  UNL1        0.0199
     21 C         144.4658  143.4842  165.4245 C.3     1  UNL1        0.0018
@<TRIPOS>BOND
     1    19    20    1
     2    20    21    1
     3    20    18    1
     4    18     1    1
     5     1     2   am
     6     2     3    2
     7     2     4    1
     8     4     5   ar
     9     5     6   ar
    10     6     7   ar
    11     7     8    1
    12     7     9   ar
    13     9    10    1
    14     9    11   ar
    15    12     1    1
    16    12    13    1
    17    13    14    1
    18    14    15    1
    19    15    16    1
    20    11     4   ar
    21    16    12    1
    22    15    17    1
@<TRIPOS>MOLECULE
*****
 21 22 0 0 0
SMALL
GASTEIGER

@<TRIPOS>ATOM
      1 N         142.1741  140.5836  167.6920 N.am    1  UNL1       -0.2763
      2 C         142.8343  139.3183  167.2304 C.2     1  UNL1        0.2490
      3 O         143.4274  138.3730  168.2326 O.2     1  UNL1       -0.2699
      4 C         142.9014  138.9984  165.7664 C.ar    1  UNL1        0.0545
      5 C         144.0944  139.4194  164.9606 C.ar    1  UNL1        0.0054
      6 C         144.1615  139.0994  163.4967 C.ar    1  UNL1        0.0124
      7 C         143.0356  138.3584  162.8386 C.ar    1  UNL1        0.0682
      8 CL        143.1027  138.0384  161.3746 Cl      1  UNL1       -0.0814
      9 C         141.8426  137.9373  163.6444 C.ar    1  UNL1        0.0683
     10 CL        140.7166  137.1962  162.9863 Cl      1  UNL1       -0.0814
     11 C         141.7755  138.2573  165.1083 C.ar    1  UNL1        0.0168
     12 C         141.5810  141.5289  166.6897 C.3     1  UNL1        0.0927
     13 C         140.1292  141.6324  166.3268 C.3     1  UNL1        0.0383
     14 C         139.9865  142.7042  165.2872 C.3     1  UNL1        0.0704
     15 N         141.3500  143.2632  165.0076 N.3     1  UNL1       -0.2960
     16 C         142.3354  142.5369  165.8744 C.3     1  UNL1        0.0887
     17 H         141.3668  144.2597  165.2245 H       1  UNL1        0.1233
     18 C         142.1069  140.9036  169.1560 C.3     1  UNL1        0.0936
     19 C         144.0214  142.5194  169.8441 C.3     1  UNL1        0.0018
     20 C         142.5594  142.2449  169.6520 C.3     1  UNL1        0.0199
     21 C         141.5497  143.3118  169.9560 C.3     1  UNL1        0.0018
@<TRIPOS>BOND
     1    19    20    1
     2    20    21    1
     3    20    18    1
     4    18     1    1
     5     1     2   am
     6     2     3    2
     7     2     4    1
     8     4     5   ar
     9     5     6   ar
    10     6     7   ar
    11     7     8    1
    12     7     9   ar
    13     9    10    1
    14     9    11   ar
    15    12     1    1
    16    12    13    1
    17    13    14    1
    18    14    15    1
    19    15    16    1
    20    11     4   ar
    21    16    12    1
    22    15    17    1
@<TRIPOS>MOLECULE
*****
 21 22 0 0 0
SMALL
GASTEIGER

@<TRIPOS>ATOM
      1 N         141.6390  140.5732  167.3722 N.am    1  UNL1       -0.2763
      2 C         142.4756  139.4070  166.9362 C.2     1  UNL1        0.2490
      3 O         143.3195  138.6737  167.9362 O.2     1  UNL1       -0.2699
      4 C         142.4684  138.9742  165.4999 C.ar    1  UNL1        0.0545
      5 C         141.4977  137.9287  165.0366 C.ar    1  UNL1        0.0054
      6 C         141.4905  137.4958  163.6005 C.ar    1  UNL1        0.0124
      7 C         142.4540  138.1085  162.6277 C.ar    1  UNL1        0.0682
      8 CL        142.4468  137.6756  161.1914 Cl      1  UNL1       -0.0814
      9 C         143.4246  139.1540  163.0910 C.ar    1  UNL1        0.0683
     10 CL        144.3881  139.7666  162.1181 Cl      1  UNL1       -0.0814
     11 C         143.4318  139.5868  164.5271 C.ar    1  UNL1        0.0168
     12 C         140.7952  141.3065  166.3721 C.3     1  UNL1        0.0927
     13 C         139.4069  140.9312  165.9459 C.3     1  UNL1        0.0383
     14 C         138.9452  141.9366  164.9330 C.3     1  UNL1        0.0704
     15 N         140.0481  142.9334  164.7332 N.3     1  UNL1       -0.2960
     16 C         141.1915  142.5440  165.6227 C.3     1  UNL1        0.0887
     17 H         139.7199  143.8670  164.9802 H       1  UNL1        0.1233
     18 C         141.6463  141.0061  168.8084 C.3     1  UNL1        0.0936
     19 C         140.3321  143.1224  169.5459 C.3     1  UNL1        0.0018
     20 C         140.4225  141.6314  169.4094 C.3     1  UNL1        0.0199
     21 C         139.2890  140.7656  169.8740 C.3     1  UNL1        0.0018
@<TRIPOS>BOND
     1    19    20    1
     2    20    21    1
     3    20    18    1
     4    18     1    1
     5     1     2   am
     6     2     3    2
     7     2     4    1
     8     4     5   ar
     9     5     6   ar
    10     6     7   ar
    11     7     8    1
    12     7     9   ar
    13     9    10    1
    14     9    11   ar
    15    12     1    1
    16    12    13    1
    17    13    14    1
    18    14    15    1
    19    15    16    1
    20    11     4   ar
    21    16    12    1
    22    15    17    1
@<TRIPOS>MOLECULE
*****
 21 22 0 0 0
SMALL
GASTEIGER

@<TRIPOS>ATOM
      1 N         141.8918  140.8366  167.0835 N.am    1  UNL1       -0.2763
      2 C         140.4384  141.1751  167.2346 C.2     1  UNL1        0.2490
      3 O         139.6855  140.7233  168.4507 O.2     1  UNL1       -0.2699
      4 C         139.7377  141.9654  166.1694 C.ar    1  UNL1        0.0545
      5 C         139.9108  143.4539  166.1038 C.ar    1  UNL1        0.0054
      6 C         139.2101  144.2442  165.0387 C.ar    1  UNL1        0.0124
      7 C         138.3364  143.5459  164.0391 C.ar    1  UNL1        0.0682
      8 CL        137.6357  144.3363  162.9740 Cl      1  UNL1       -0.0814
      9 C         138.1633  142.0574  164.1048 C.ar    1  UNL1        0.0683
     10 CL        137.2895  141.3592  163.1052 Cl      1  UNL1       -0.0814
     11 C         138.8639  141.2672  165.1699 C.ar    1  UNL1        0.0168
     12 C         142.6446  141.2883  165.8673 C.3     1  UNL1        0.0927
     13 C         143.4652  142.5387  165.7523 C.3     1  UNL1        0.0383
     14 C         144.0368  142.5922  164.3665 C.3     1  UNL1        0.0704
     15 N         143.5695  141.3749  163.6250 N.3     1  UNL1       -0.2960
     16 C         142.7091  140.5691  164.5526 C.3     1  UNL1        0.0887
     17 H         144.3728  140.8205  163.3287 H       1  UNL1        0.1233
     18 C         142.5925  140.0462  168.1487 C.3     1  UNL1        0.0936
     19 C         142.9721  139.9135  170.7153 C.3     1  UNL1        0.0018
     20 C         142.9762  140.7043  169.4408 C.3     1  UNL1        0.0199
     21 C         143.3639  142.1533  169.4583 C.3     1  UNL1        0.0018
@<TRIPOS>BOND
     1    19    20    1
     2    20    21    1
     3    20    18    1
     4    18     1    1
     5     1     2   am
     6     2     3    2
     7     2     4    1
     8     4     5   ar
     9     5     6   ar
    10     6     7   ar
    11     7     8    1
    12     7     9   ar
    13     9    10    1
    14     9    11   ar
    15    12     1    1
    16    12    13    1
    17    13    14    1
    18    14    15    1
    19    15    16    1
    20    11     4   ar
    21    16    12    1
    22    15    17    1
@<TRIPOS>MOLECULE
*****
 21 22 0 0 0
SMALL
GASTEIGER

@<TRIPOS>ATOM
      1 N         141.3046  142.4557  164.3027 N.am    1  UNL1       -0.2763
      2 C         141.9667  141.8437  165.5014 C.2     1  UNL1        0.2490
      3 O         143.4480  141.6074  165.5009 O.2     1  UNL1       -0.2699
      4 C         141.1477  141.4679  166.7005 C.ar    1  UNL1        0.0545
      5 C         140.4545  140.1386  166.7487 C.ar    1  UNL1        0.0054
      6 C         139.6354  139.7628  167.9478 C.ar    1  UNL1        0.0124
      7 C         139.5096  140.7164  169.0988 C.ar    1  UNL1        0.0682
      8 CL        138.6905  140.3406  170.2980 Cl      1  UNL1       -0.0814
      9 C         140.2028  142.0457  169.0507 C.ar    1  UNL1        0.0683
     10 CL        140.0770  142.9993  170.2017 Cl      1  UNL1       -0.0814
     11 C         141.0218  142.4215  167.8516 C.ar    1  UNL1        0.0168
     12 C         139.8233  142.6919  164.3031 C.3     1  UNL1        0.0927
     13 C         139.1307  143.9466  164.7461 C.3     1  UNL1        0.0383
     14 C         137.6539  143.7451  164.5774 C.3     1  UNL1        0.0704
     15 N         137.4337  142.3660  164.0301 N.3     1  UNL1       -0.2960
     16 C         138.7745  141.7151  163.8606 C.3     1  UNL1        0.0887
     17 H         136.9601  142.4229  163.1285 H       1  UNL1        0.1233
     18 C         142.1236  142.8315  163.1035 C.3     1  UNL1        0.0936
     19 C         144.3562  144.0327  162.5358 C.3     1  UNL1        0.0018
     20 C         142.9823  144.0609  163.1371 C.3     1  UNL1        0.0199
     21 C         142.4672  145.3184  163.7720 C.3     1  UNL1        0.0018
@<TRIPOS>BOND
     1    19    20    1
     2    20    21    1
     3    20    18    1
     4    18     1    1
     5     1     2   am
     6     2     3    2
     7     2     4    1
     8     4     5   ar
     9     5     6   ar
    10     6     7   ar
    11     7     8    1
    12     7     9   ar
    13     9    10    1
    14     9    11   ar
    15    12     1    1
    16    12    13    1
    17    13    14    1
    18    14    15    1
    19    15    16    1
    20    11     4   ar
    21    16    12    1
    22    15    17    1
