@<TRIPOS>MOLECULE
*****
 32 36 0 0 0
SMALL
GASTEIGER

@<TRIPOS>ATOM
      1 N         139.3156  139.6531  161.5890 N.3     1  UNL1       -0.2704
      2 C         140.7142  139.3593  162.0447 C.3     1  UNL1        0.0723
      3 C         141.8747  139.6538  161.1412 C.3     1  UNL1        0.0207
      4 C         141.6367  140.2419  159.7820 C.3     1  UNL1        0.0392
      5 C         140.2381  140.5356  159.3262 C.3     1  UNL1        0.0207
      6 C         139.0775  140.2412  160.2297 C.3     1  UNL1        0.0723
      7 C         143.1255  140.0901  159.8840 C.3     1  UNL1        0.0938
      8 N         143.2780  140.6582  158.5041 N.pl3   1  UNL1       -0.2931
      9 C         141.7892  140.8101  158.4021 C.3     1  UNL1        0.0938
     10 C         144.4387  140.9526  157.6007 C.ar    1  UNL1        0.1317
     11 C         145.2692  142.1817  157.8230 C.ar    1  UNL1        0.0350
     12 C         146.4299  142.4761  156.9194 C.ar    1  UNL1        0.0147
     13 C         146.7599  141.5414  155.7936 C.ar    1  UNL1        0.0877
     14 C         145.9293  140.3123  155.5714 C.ar    1  UNL1        0.1105
     15 N         144.7687  140.0179  156.4749 N.ar    1  UNL1       -0.2285
     16 C         147.9205  141.8357  154.8901 C.1     1  UNL1        0.1020
     17 N         149.0812  142.1301  153.9867 N.1     1  UNL1       -0.1908
     18 C         138.1549  139.3587  162.4924 C.3     1  UNL1        0.1063
     19 C         137.7443  140.3559  163.5350 C.3     1  UNL1        0.1483
     20 O         136.7091  141.3929  163.2144 O.3     1  UNL1       -0.3786
     21 H         136.5612  141.9535  163.9921 H       1  UNL1        0.2108
     22 C         139.7479  142.4431  164.3285 C.3     1  UNL1        0.0306
     23 C         139.3708  141.3597  165.2950 C.ar    1  UNL1       -0.0238
     24 C         138.3690  140.3160  164.8983 C.ar    1  UNL1        0.0015
     25 C         137.9919  139.2327  165.8646 C.ar    1  UNL1       -0.0020
     26 C         138.6165  139.1929  167.2278 C.ar    1  UNL1        0.0060
     27 C         139.6182  140.2364  167.6246 C.ar    1  UNL1        0.0748
     28 C         139.9954  141.3198  166.6582 C.ar    1  UNL1        0.0233
     29 C         141.0049  142.2058  167.3258 C.3     1  UNL1        0.2352
     30 O         141.2517  141.6699  168.7049 O.3     1  UNL1       -0.4404
     31 C         140.3947  140.4528  168.8896 C.2     1  UNL1        0.3413
     32 O         140.3262  139.6015  170.1227 O.2     1  UNL1       -0.2449
@<TRIPOS>BOND
     1    22    23    1
     2    23    24   ar
     3    24    19    1
     4    19    20    1
     5    19    18    1
     6    18     1    1
     7     1     2    1
     8     2     3    1
     9     3     4    1
    10     4     5    1
    11     5     6    1
    12     4     7    1
    13     7     8    1
    14     8    10    1
    15    10    11   ar
    16    11    12   ar
    17    12    13   ar
    18    13    16    1
    19    16    17    3
    20    13    14   ar
    21    14    15   ar
    22     8     9    1
    23    24    25   ar
    24    25    26   ar
    25    26    27   ar
    26    27    28   ar
    27    28    29    1
    28    29    30    1
    29    30    31    1
    30    31    32    2
    31    28    23   ar
    32     6     1    1
    33    15    10   ar
    34    31    27    1
    35     9     4    1
    36    20    21    1
@<TRIPOS>MOLECULE
*****
 32 36 0 0 0
SMALL
GASTEIGER

@<TRIPOS>ATOM
      1 N         143.7853  140.3720  163.3008 N.3     1  UNL1       -0.2704
      2 C         143.3092  138.9496  163.2914 C.3     1  UNL1        0.0723
      3 C         143.0440  138.2561  161.9881 C.3     1  UNL1        0.0207
      4 C         143.2548  138.9850  160.6942 C.3     1  UNL1        0.0392
      5 C         143.7309  140.4074  160.7036 C.3     1  UNL1        0.0207
      6 C         143.9962  141.1010  162.0069 C.3     1  UNL1        0.0723
      7 C         142.7868  137.6164  160.2969 C.3     1  UNL1        0.0938
      8 N         142.8797  138.0043  158.8509 N.pl3   1  UNL1       -0.2931
      9 C         143.3477  139.3730  159.2482 C.3     1  UNL1        0.0938
     10 C         142.6144  137.3108  157.5476 C.ar    1  UNL1        0.1317
     11 C         141.2388  137.3375  156.9502 C.ar    1  UNL1        0.0350
     12 C         140.9735  136.6439  155.6468 C.ar    1  UNL1        0.0147
     13 C         142.0839  135.9237  154.9409 C.ar    1  UNL1        0.0877
     14 C         143.4596  135.8970  155.5384 C.ar    1  UNL1        0.1105
     15 N         143.7248  136.5905  156.8417 N.ar    1  UNL1       -0.2285
     16 C         141.8187  135.2301  153.6376 C.1     1  UNL1        0.1020
     17 N         141.5535  134.5367  152.3343 N.1     1  UNL1       -0.1908
     18 C         144.0506  141.0655  164.6041 C.3     1  UNL1        0.1063
     19 C         143.0250  141.9957  165.1811 C.3     1  UNL1        0.1483
     20 O         142.5958  143.2094  164.4112 O.3     1  UNL1       -0.3786
     21 H         141.9323  143.6987  164.9224 H       1  UNL1        0.2108
     22 C         140.4906  140.4045  165.3943 C.3     1  UNL1        0.0306
     23 C         141.1613  140.9166  166.6345 C.ar    1  UNL1       -0.0238
     24 C         142.4285  141.7122  166.5279 C.ar    1  UNL1        0.0015
     25 C         143.0992  142.2242  167.7680 C.ar    1  UNL1       -0.0020
     26 C         142.5027  141.9407  169.1148 C.ar    1  UNL1        0.0060
     27 C         141.2356  141.1452  169.2215 C.ar    1  UNL1        0.0748
     28 C         140.5649  140.6331  167.9813 C.ar    1  UNL1        0.0233
     29 C         139.3343  139.8823  168.3962 C.3     1  UNL1        0.2352
     30 O         139.2445  139.9304  169.8927 O.3     1  UNL1       -0.4404
     31 C         140.4196  140.7109  170.4028 C.2     1  UNL1        0.3413
     32 O         140.7249  141.0053  171.8415 O.2     1  UNL1       -0.2449
@<TRIPOS>BOND
     1    22    23    1
     2    23    24   ar
     3    24    19    1
     4    19    20    1
     5    19    18    1
     6    18     1    1
     7     1     2    1
     8     2     3    1
     9     3     4    1
    10     4     5    1
    11     5     6    1
    12     4     7    1
    13     7     8    1
    14     8    10    1
    15    10    11   ar
    16    11    12   ar
    17    12    13   ar
    18    13    16    1
    19    16    17    3
    20    13    14   ar
    21    14    15   ar
    22     8     9    1
    23    24    25   ar
    24    25    26   ar
    25    26    27   ar
    26    27    28   ar
    27    28    29    1
    28    29    30    1
    29    30    31    1
    30    31    32    2
    31    28    23   ar
    32     6     1    1
    33    15    10   ar
    34    31    27    1
    35     9     4    1
    36    20    21    1
@<TRIPOS>MOLECULE
*****
 32 36 0 0 0
SMALL
GASTEIGER

@<TRIPOS>ATOM
      1 N         143.9688  140.3672  163.2107 N.3     1  UNL1       -0.2704
      2 C         144.1120  141.1373  161.9314 C.3     1  UNL1        0.0723
      3 C         143.8163  140.4734  160.6193 C.3     1  UNL1        0.0207
      4 C         143.3773  139.0394  160.5864 C.3     1  UNL1        0.0392
      5 C         143.2341  138.2693  161.8657 C.3     1  UNL1        0.0207
      6 C         143.5299  138.9332  163.1778 C.3     1  UNL1        0.0723
      7 C         143.4058  139.4697  159.1497 C.3     1  UNL1        0.0938
      8 N         142.9590  138.1004  158.7308 N.pl3   1  UNL1       -0.2931
      9 C         142.9305  137.6701  160.1675 C.3     1  UNL1        0.0938
     10 C         142.6633  137.4366  157.4186 C.ar    1  UNL1        0.1317
     11 C         141.2486  137.3387  156.9296 C.ar    1  UNL1        0.0350
     12 C         140.9528  136.6747  155.6174 C.ar    1  UNL1        0.0147
     13 C         142.0718  136.1088  154.7942 C.ar    1  UNL1        0.0877
     14 C         143.4865  136.2067  155.2833 C.ar    1  UNL1        0.1105
     15 N         143.7822  136.8706  156.5954 N.ar    1  UNL1       -0.2285
     16 C         141.7761  135.4449  153.4821 C.1     1  UNL1        0.1020
     17 N         141.4804  134.7810  152.1699 N.1     1  UNL1       -0.1908
     18 C         144.2646  141.0311  164.5228 C.3     1  UNL1        0.1063
     19 C         143.1871  141.7902  165.2389 C.3     1  UNL1        0.1483
     20 O         142.9608  141.5680  166.7050 O.3     1  UNL1       -0.3786
     21 H         142.2331  142.1327  167.0091 H       1  UNL1        0.2108
     22 C         140.4377  141.0048  164.3313 C.3     1  UNL1        0.0306
     23 C         140.9612  142.3790  164.0351 C.ar    1  UNL1       -0.0238
     24 C         142.3360  142.7717  164.4889 C.ar    1  UNL1        0.0015
     25 C         142.8596  144.1458  164.1928 C.ar    1  UNL1       -0.0020
     26 C         142.0085  145.1272  163.4429 C.ar    1  UNL1        0.0060
     27 C         140.6338  144.7345  162.9891 C.ar    1  UNL1        0.0748
     28 C         140.1102  143.3604  163.2852 C.ar    1  UNL1        0.0233
     29 C         138.7262  143.2591  162.7157 C.3     1  UNL1        0.2352
     30 O         138.3945  144.5705  162.0676 O.3     1  UNL1       -0.4404
     31 C         139.5734  145.4824  162.2366 C.2     1  UNL1        0.3413
     32 O         139.6743  146.8943  161.7401 O.2     1  UNL1       -0.2449
@<TRIPOS>BOND
     1    22    23    1
     2    23    24   ar
     3    24    19    1
     4    19    20    1
     5    19    18    1
     6    18     1    1
     7     1     2    1
     8     2     3    1
     9     3     4    1
    10     4     5    1
    11     5     6    1
    12     4     7    1
    13     7     8    1
    14     8    10    1
    15    10    11   ar
    16    11    12   ar
    17    12    13   ar
    18    13    16    1
    19    16    17    3
    20    13    14   ar
    21    14    15   ar
    22     8     9    1
    23    24    25   ar
    24    25    26   ar
    25    26    27   ar
    26    27    28   ar
    27    28    29    1
    28    29    30    1
    29    30    31    1
    30    31    32    2
    31    28    23   ar
    32     6     1    1
    33    15    10   ar
    34    31    27    1
    35     9     4    1
    36    20    21    1
@<TRIPOS>MOLECULE
*****
 32 36 0 0 0
SMALL
GASTEIGER

@<TRIPOS>ATOM
      1 N         141.4247  137.9967  158.1854 N.3     1  UNL1       -0.2704
      2 C         140.0397  138.4215  158.5745 C.3     1  UNL1        0.0723
      3 C         139.7120  138.6818  160.0149 C.3     1  UNL1        0.0207
      4 C         140.7693  138.5174  161.0662 C.3     1  UNL1        0.0392
      5 C         142.1543  138.0926  160.6770 C.3     1  UNL1        0.0207
      6 C         142.4820  137.8323  159.2366 C.3     1  UNL1        0.0723
      7 C         139.5405  138.9420  161.8144 C.3     1  UNL1        0.0938
      8 N         140.3059  138.8855  163.1033 N.pl3   1  UNL1       -0.2931
      9 C         141.5346  138.4609  162.3550 C.3     1  UNL1        0.0938
     10 C         139.9781  139.1459  164.5437 C.ar    1  UNL1        0.1317
     11 C         138.6544  138.7139  165.1016 C.ar    1  UNL1        0.0350
     12 C         138.3267  138.9742  166.5421 C.ar    1  UNL1        0.0147
     13 C         139.3226  139.6666  167.4246 C.ar    1  UNL1        0.0877
     14 C         140.6463  140.0985  166.8666 C.ar    1  UNL1        0.1105
     15 N         140.9740  139.8382  165.4262 N.ar    1  UNL1       -0.2285
     16 C         138.9950  139.9269  168.8650 C.1     1  UNL1        0.1020
     17 N         138.6674  140.1873  170.3054 N.1     1  UNL1       -0.1908
     18 C         141.7524  137.7364  156.7450 C.3     1  UNL1        0.1063
     19 C         142.9419  136.8957  156.3865 C.3     1  UNL1        0.1483
     20 O         144.2630  137.5474  156.1036 O.3     1  UNL1       -0.3786
     21 H         144.9201  136.8667  155.8899 H       1  UNL1        0.2108
     22 C         141.3636  135.6395  154.1659 C.3     1  UNL1        0.0306
     23 C         142.0211  134.7753  155.2007 C.ar    1  UNL1       -0.0238
     24 C         142.8103  135.4034  156.3111 C.ar    1  UNL1        0.0015
     25 C         143.4677  134.5392  157.3458 C.ar    1  UNL1       -0.0020
     26 C         143.3361  133.0469  157.2704 C.ar    1  UNL1        0.0060
     27 C         142.5470  132.4188  156.1601 C.ar    1  UNL1        0.0748
     28 C         141.8895  133.2830  155.1253 C.ar    1  UNL1        0.0233
     29 C         141.1808  132.3857  154.1544 C.3     1  UNL1        0.2352
     30 O         141.4002  130.9670  154.5892 O.3     1  UNL1       -0.4404
     31 C         142.2446  130.9874  155.8288 C.2     1  UNL1        0.3413
     32 O         142.7057  129.7872  156.6014 O.2     1  UNL1       -0.2449
@<TRIPOS>BOND
     1    22    23    1
     2    23    24   ar
     3    24    19    1
     4    19    20    1
     5    19    18    1
     6    18     1    1
     7     1     2    1
     8     2     3    1
     9     3     4    1
    10     4     5    1
    11     5     6    1
    12     4     7    1
    13     7     8    1
    14     8    10    1
    15    10    11   ar
    16    11    12   ar
    17    12    13   ar
    18    13    16    1
    19    16    17    3
    20    13    14   ar
    21    14    15   ar
    22     8     9    1
    23    24    25   ar
    24    25    26   ar
    25    26    27   ar
    26    27    28   ar
    27    28    29    1
    28    29    30    1
    29    30    31    1
    30    31    32    2
    31    28    23   ar
    32     6     1    1
    33    15    10   ar
    34    31    27    1
    35     9     4    1
    36    20    21    1
@<TRIPOS>MOLECULE
*****
 32 36 0 0 0
SMALL
GASTEIGER

@<TRIPOS>ATOM
      1 N         138.4073  139.4356  164.9590 N.3     1  UNL1       -0.2704
      2 C         138.0006  140.7590  164.3819 C.3     1  UNL1        0.0723
      3 C         137.9798  140.9541  162.8948 C.3     1  UNL1        0.0207
      4 C         138.3657  139.8258  161.9848 C.3     1  UNL1        0.0392
      5 C         138.7724  138.5023  162.5620 C.3     1  UNL1        0.0207
      6 C         138.7932  138.3072  164.0491 C.3     1  UNL1        0.0723
      7 C         138.0274  140.9646  161.0691 C.3     1  UNL1        0.0938
      8 N         138.3362  140.1016  159.8817 N.pl3   1  UNL1       -0.2931
      9 C         138.6745  138.9627  160.7975 C.3     1  UNL1        0.0938
     10 C         138.3153  140.2968  158.3946 C.ar    1  UNL1        0.1317
     11 C         139.5966  140.2608  157.6154 C.ar    1  UNL1        0.0350
     12 C         139.5757  140.4559  156.1282 C.ar    1  UNL1        0.0147
     13 C         138.2736  140.6871  155.4204 C.ar    1  UNL1        0.0877
     14 C         136.9924  140.7230  156.1997 C.ar    1  UNL1        0.1105
     15 N         137.0133  140.5279  157.6867 N.ar    1  UNL1       -0.2285
     16 C         138.2527  140.8822  153.9333 C.1     1  UNL1        0.1020
     17 N         138.2318  141.0774  152.4462 N.1     1  UNL1       -0.1908
     18 C         138.4282  139.2404  166.4461 C.3     1  UNL1        0.1063
     19 C         139.6190  139.6826  167.2439 C.3     1  UNL1        0.1483
     20 O         139.5423  139.7319  168.7412 O.3     1  UNL1       -0.3786
     21 H         140.3911  140.0364  169.0985 H       1  UNL1        0.2108
     22 C         140.1918  142.5748  166.6897 C.3     1  UNL1        0.0306
     23 C         141.1729  141.5217  166.2673 C.ar    1  UNL1       -0.0238
     24 C         140.8865  140.0755  166.5445 C.ar    1  UNL1        0.0015
     25 C         141.8675  139.0224  166.1222 C.ar    1  UNL1       -0.0020
     26 C         143.1350  139.4152  165.4228 C.ar    1  UNL1        0.0060
     27 C         143.4214  140.8613  165.1456 C.ar    1  UNL1        0.0748
     28 C         142.4403  141.9145  165.5679 C.ar    1  UNL1        0.0233
     29 C         142.9904  143.2498  165.1622 C.3     1  UNL1        0.2352
     30 O         144.3114  143.0218  164.4892 O.3     1  UNL1       -0.4404
     31 C         144.5777  141.5456  164.4789 C.2     1  UNL1        0.3413
     32 O         145.7880  140.8721  163.9031 O.2     1  UNL1       -0.2449
@<TRIPOS>BOND
     1    22    23    1
     2    23    24   ar
     3    24    19    1
     4    19    20    1
     5    19    18    1
     6    18     1    1
     7     1     2    1
     8     2     3    1
     9     3     4    1
    10     4     5    1
    11     5     6    1
    12     4     7    1
    13     7     8    1
    14     8    10    1
    15    10    11   ar
    16    11    12   ar
    17    12    13   ar
    18    13    16    1
    19    16    17    3
    20    13    14   ar
    21    14    15   ar
    22     8     9    1
    23    24    25   ar
    24    25    26   ar
    25    26    27   ar
    26    27    28   ar
    27    28    29    1
    28    29    30    1
    29    30    31    1
    30    31    32    2
    31    28    23   ar
    32     6     1    1
    33    15    10   ar
    34    31    27    1
    35     9     4    1
    36    20    21    1
@<TRIPOS>MOLECULE
*****
 32 36 0 0 0
SMALL
GASTEIGER

@<TRIPOS>ATOM
      1 N         140.9170  140.5730  162.7140 N.3     1  UNL1       -0.2704
      2 C         140.2192  141.8720  162.4388 C.3     1  UNL1        0.0723
      3 C         139.3783  142.0251  161.2061 C.3     1  UNL1        0.0207
      4 C         139.2352  140.8793  160.2488 C.3     1  UNL1        0.0392
      5 C         139.9330  139.5803  160.5240 C.3     1  UNL1        0.0207
      6 C         140.7739  139.4271  161.7566 C.3     1  UNL1        0.0723
      7 C         138.4141  141.9856  159.6556 C.3     1  UNL1        0.0938
      8 N         138.0459  141.0958  158.5055 N.pl3   1  UNL1       -0.2931
      9 C         138.8670  139.9894  159.0987 C.3     1  UNL1        0.0938
     10 C         137.2050  141.2490  157.2729 C.ar    1  UNL1        0.1317
     11 C         137.5400  142.3064  156.2631 C.ar    1  UNL1        0.0350
     12 C         136.6990  142.4595  155.0304 C.ar    1  UNL1        0.0147
     13 C         135.5231  141.5553  154.8076 C.ar    1  UNL1        0.0877
     14 C         135.1882  140.4979  155.8175 C.ar    1  UNL1        0.1105
     15 N         136.0291  140.3447  157.0501 N.ar    1  UNL1       -0.2285
     16 C         134.6821  141.7084  153.5750 C.1     1  UNL1        0.1020
     17 N         133.8411  141.8614  152.3425 N.1     1  UNL1       -0.1908
     18 C         141.7579  140.4198  163.9466 C.3     1  UNL1        0.1063
     19 C         141.1282  139.9762  165.2337 C.3     1  UNL1        0.1483
     20 O         140.6140  138.5740  165.3730 O.3     1  UNL1       -0.3786
     21 H         140.2409  138.4531  166.2601 H       1  UNL1        0.2108
     22 C         142.6810  139.4917  167.7545 C.3     1  UNL1        0.0306
     23 C         141.7892  140.6926  167.6422 C.ar    1  UNL1       -0.0238
     24 C         141.0128  140.9349  166.3817 C.ar    1  UNL1        0.0015
     25 C         140.1210  142.1357  166.2693 C.ar    1  UNL1       -0.0020
     26 C         140.0055  143.0943  167.4172 C.ar    1  UNL1        0.0060
     27 C         140.7819  142.8521  168.6776 C.ar    1  UNL1        0.0748
     28 C         141.6737  141.6512  168.7901 C.ar    1  UNL1        0.0233
     29 C         142.3122  141.6735  170.1472 C.3     1  UNL1        0.2352
     30 O         141.8150  142.8881  170.8735 O.3     1  UNL1       -0.4404
     31 C         140.8692  143.6165  169.9652 C.2     1  UNL1        0.3413
     32 O         140.1390  144.8864  170.2880 O.2     1  UNL1       -0.2449
@<TRIPOS>BOND
     1    22    23    1
     2    23    24   ar
     3    24    19    1
     4    19    20    1
     5    19    18    1
     6    18     1    1
     7     1     2    1
     8     2     3    1
     9     3     4    1
    10     4     5    1
    11     5     6    1
    12     4     7    1
    13     7     8    1
    14     8    10    1
    15    10    11   ar
    16    11    12   ar
    17    12    13   ar
    18    13    16    1
    19    16    17    3
    20    13    14   ar
    21    14    15   ar
    22     8     9    1
    23    24    25   ar
    24    25    26   ar
    25    26    27   ar
    26    27    28   ar
    27    28    29    1
    28    29    30    1
    29    30    31    1
    30    31    32    2
    31    28    23   ar
    32     6     1    1
    33    15    10   ar
    34    31    27    1
    35     9     4    1
    36    20    21    1
@<TRIPOS>MOLECULE
*****
 32 36 0 0 0
SMALL
GASTEIGER

@<TRIPOS>ATOM
      1 N         138.4120  140.6811  163.7614 N.3     1  UNL1       -0.2704
      2 C         138.6639  139.9455  162.4786 C.3     1  UNL1        0.0723
      3 C         138.9762  140.7084  161.2255 C.3     1  UNL1        0.0207
      4 C         139.0366  142.2069  161.2551 C.3     1  UNL1        0.0392
      5 C         138.7847  142.9425  162.5378 C.3     1  UNL1        0.0207
      6 C         138.4724  142.1797  163.7910 C.3     1  UNL1        0.0723
      7 C         139.3356  141.8344  159.8332 C.3     1  UNL1        0.0938
      8 N         139.4783  143.2859  159.4828 N.pl3   1  UNL1       -0.2931
      9 C         139.1792  143.6585  160.9047 C.3     1  UNL1        0.0938
     10 C         139.7906  144.0488  158.2296 C.ar    1  UNL1        0.1317
     11 C         140.4978  145.3690  158.3119 C.ar    1  UNL1        0.0350
     12 C         140.8101  146.1319  157.0586 C.ar    1  UNL1        0.0147
     13 C         140.4152  145.5745  155.7232 C.ar    1  UNL1        0.0877
     14 C         139.7080  144.2542  155.6410 C.ar    1  UNL1        0.1105
     15 N         139.3957  143.4913  156.8942 N.ar    1  UNL1       -0.2285
     16 C         140.7275  146.3373  154.4700 C.1     1  UNL1        0.1020
     17 N         141.0397  147.1000  153.2167 N.1     1  UNL1       -0.1908
     18 C         138.0997  139.9183  165.0145 C.3     1  UNL1        0.1063
     19 C         139.2120  139.3324  165.8328 C.3     1  UNL1        0.1483
     20 O         139.9094  138.0881  165.3687 O.3     1  UNL1       -0.3786
     21 H         140.5973  137.8455  166.0081 H       1  UNL1        0.2108
     22 C         141.5951  141.1542  165.8809 C.3     1  UNL1        0.0306
     23 C         140.8185  140.9018  167.1392 C.ar    1  UNL1       -0.0238
     24 C         139.6269  139.9909  167.1152 C.ar    1  UNL1        0.0015
     25 C         138.8503  139.7385  168.3733 C.ar    1  UNL1       -0.0020
     26 C         139.2652  140.3969  169.6556 C.ar    1  UNL1        0.0060
     27 C         140.4567  141.3078  169.6797 C.ar    1  UNL1        0.0748
     28 C         141.2333  141.5602  168.4215 C.ar    1  UNL1        0.0233
     29 C         142.3554  142.4999  168.7500 C.3     1  UNL1        0.2352
     30 O         142.2722  142.8282  170.2112 O.3     1  UNL1       -0.4404
     31 C         141.0988  142.0915  170.7859 C.2     1  UNL1        0.3413
     32 O         140.6468  142.1314  172.2156 O.2     1  UNL1       -0.2449
@<TRIPOS>BOND
     1    22    23    1
     2    23    24   ar
     3    24    19    1
     4    19    20    1
     5    19    18    1
     6    18     1    1
     7     1     2    1
     8     2     3    1
     9     3     4    1
    10     4     5    1
    11     5     6    1
    12     4     7    1
    13     7     8    1
    14     8    10    1
    15    10    11   ar
    16    11    12   ar
    17    12    13   ar
    18    13    16    1
    19    16    17    3
    20    13    14   ar
    21    14    15   ar
    22     8     9    1
    23    24    25   ar
    24    25    26   ar
    25    26    27   ar
    26    27    28   ar
    27    28    29    1
    28    29    30    1
    29    30    31    1
    30    31    32    2
    31    28    23   ar
    32     6     1    1
    33    15    10   ar
    34    31    27    1
    35     9     4    1
    36    20    21    1
@<TRIPOS>MOLECULE
*****
 32 36 0 0 0
SMALL
GASTEIGER

@<TRIPOS>ATOM
      1 N         141.0309  139.4432  162.7839 N.3     1  UNL1       -0.2704
      2 C         141.6257  140.8090  162.6092 C.3     1  UNL1        0.0723
      3 C         142.4666  141.1123  161.4046 C.3     1  UNL1        0.0207
      4 C         142.7126  140.0497  160.3749 C.3     1  UNL1        0.0392
      5 C         142.1178  138.6838  160.5496 C.3     1  UNL1        0.0207
      6 C         141.2769  138.3805  161.7541 C.3     1  UNL1        0.0723
      7 C         143.4497  141.2556  159.8722 C.3     1  UNL1        0.0938
      8 N         143.9019  140.4786  158.6714 N.pl3   1  UNL1       -0.2931
      9 C         143.1648  139.2727  159.1741 C.3     1  UNL1        0.0938
     10 C         144.7428  140.7819  157.4669 C.ar    1  UNL1        0.1317
     11 C         145.4833  142.0833  157.3776 C.ar    1  UNL1        0.0350
     12 C         146.3242  142.3867  156.1730 C.ar    1  UNL1        0.0147
     13 C         146.4246  141.3886  155.0578 C.ar    1  UNL1        0.0877
     14 C         145.6841  140.0871  155.1472 C.ar    1  UNL1        0.1105
     15 N         144.8432  139.7838  156.3517 N.ar    1  UNL1       -0.2285
     16 C         147.2655  141.6918  153.8532 C.1     1  UNL1        0.1020
     17 N         148.1063  141.9951  152.6487 N.1     1  UNL1       -0.1908
     18 C         140.1900  139.1398  163.9884 C.3     1  UNL1        0.1063
     19 C         139.3429  140.2151  164.6018 C.3     1  UNL1        0.1483
     20 O         138.1345  140.7247  163.8738 O.3     1  UNL1       -0.3786
     21 H         137.7030  141.4122  164.4050 H       1  UNL1        0.2108
     22 C         138.2891  138.9359  167.1025 C.3     1  UNL1        0.0306
     23 C         139.1774  140.1412  167.1936 C.ar    1  UNL1       -0.0238
     24 C         139.7043  140.7809  165.9433 C.ar    1  UNL1        0.0015
     25 C         140.5925  141.9861  166.0343 C.ar    1  UNL1       -0.0020
     26 C         140.9540  142.5518  167.3757 C.ar    1  UNL1        0.0060
     27 C         140.4271  141.9122  168.6261 C.ar    1  UNL1        0.0748
     28 C         139.5388  140.7070  168.5350 C.ar    1  UNL1        0.0233
     29 C         139.1735  140.2939  169.9300 C.3     1  UNL1        0.2352
     30 O         139.8359  141.2440  170.8832 O.3     1  UNL1       -0.4404
     31 C         140.6107  142.2441  170.0773 C.2     1  UNL1        0.3413
     32 O         141.4260  143.3772  170.6264 O.2     1  UNL1       -0.2449
@<TRIPOS>BOND
     1    22    23    1
     2    23    24   ar
     3    24    19    1
     4    19    20    1
     5    19    18    1
     6    18     1    1
     7     1     2    1
     8     2     3    1
     9     3     4    1
    10     4     5    1
    11     5     6    1
    12     4     7    1
    13     7     8    1
    14     8    10    1
    15    10    11   ar
    16    11    12   ar
    17    12    13   ar
    18    13    16    1
    19    16    17    3
    20    13    14   ar
    21    14    15   ar
    22     8     9    1
    23    24    25   ar
    24    25    26   ar
    25    26    27   ar
    26    27    28   ar
    27    28    29    1
    28    29    30    1
    29    30    31    1
    30    31    32    2
    31    28    23   ar
    32     6     1    1
    33    15    10   ar
    34    31    27    1
    35     9     4    1
    36    20    21    1
@<TRIPOS>MOLECULE
*****
 32 36 0 0 0
SMALL
GASTEIGER

@<TRIPOS>ATOM
      1 N         140.1387  145.3380  156.9232 N.3     1  UNL1       -0.2704
      2 C         139.5077  143.9807  157.0213 C.3     1  UNL1        0.0723
      3 C         139.3940  143.3011  158.3537 C.3     1  UNL1        0.0207
      4 C         139.9114  143.9787  159.5879 C.3     1  UNL1        0.0392
      5 C         140.5424  145.3360  159.4897 C.3     1  UNL1        0.0207
      6 C         140.6561  146.0157  158.1574 C.3     1  UNL1        0.0723
      7 C         139.3622  142.6674  160.0662 C.3     1  UNL1        0.0938
      8 N         139.7506  143.0176  161.4721 N.pl3   1  UNL1       -0.2931
      9 C         140.2998  144.3289  160.9937 C.3     1  UNL1        0.0938
     10 C         139.6369  142.3379  162.8045 C.ar    1  UNL1        0.1317
     11 C         138.2862  141.9883  163.3552 C.ar    1  UNL1        0.0350
     12 C         138.1725  141.3086  164.6876 C.ar    1  UNL1        0.0147
     13 C         139.4095  140.9786  165.4692 C.ar    1  UNL1        0.0877
     14 C         140.7602  141.3282  164.9183 C.ar    1  UNL1        0.1105
     15 N         140.8739  142.0079  163.5860 N.ar    1  UNL1       -0.2285
     16 C         139.2959  140.2989  166.8015 C.1     1  UNL1        0.1020
     17 N         139.1824  139.6193  168.1339 N.1     1  UNL1       -0.1908
     18 C         140.2524  146.0176  155.5909 C.3     1  UNL1        0.1063
     19 C         139.1079  146.8316  155.0640 C.3     1  UNL1        0.1483
     20 O         137.7440  146.2187  154.9446 O.3     1  UNL1       -0.3786
     21 H         137.1244  146.8753  154.5900 H       1  UNL1        0.2108
     22 C         138.3110  149.0581  156.9101 C.3     1  UNL1        0.0306
     23 C         138.9287  149.3717  155.5797 C.ar    1  UNL1       -0.0238
     24 C         139.3272  148.2585  154.6566 C.ar    1  UNL1        0.0015
     25 C         139.9449  148.5721  153.3263 C.ar    1  UNL1       -0.0020
     26 C         140.1643  149.9989  152.9188 C.ar    1  UNL1        0.0060
     27 C         139.7658  151.1122  153.8418 C.ar    1  UNL1        0.0748
     28 C         139.1480  150.7986  155.1722 C.ar    1  UNL1        0.0233
     29 C         138.8588  152.0964  155.8665 C.3     1  UNL1        0.2352
     30 O         139.2978  153.2121  154.9651 O.3     1  UNL1       -0.4404
     31 C         139.8583  152.6038  153.7138 C.2     1  UNL1        0.3413
     32 O         140.4139  153.3553  152.5405 O.2     1  UNL1       -0.2449
@<TRIPOS>BOND
     1    22    23    1
     2    23    24   ar
     3    24    19    1
     4    19    20    1
     5    19    18    1
     6    18     1    1
     7     1     2    1
     8     2     3    1
     9     3     4    1
    10     4     5    1
    11     5     6    1
    12     4     7    1
    13     7     8    1
    14     8    10    1
    15    10    11   ar
    16    11    12   ar
    17    12    13   ar
    18    13    16    1
    19    16    17    3
    20    13    14   ar
    21    14    15   ar
    22     8     9    1
    23    24    25   ar
    24    25    26   ar
    25    26    27   ar
    26    27    28   ar
    27    28    29    1
    28    29    30    1
    29    30    31    1
    30    31    32    2
    31    28    23   ar
    32     6     1    1
    33    15    10   ar
    34    31    27    1
    35     9     4    1
    36    20    21    1
