@<TRIPOS>MOLECULE
*****
 25 27 0 0 0
SMALL
GASTEIGER

@<TRIPOS>ATOM
      1 C         141.1059  139.6749  166.5152 C.ar    1  UNL1       -0.0078
      2 C         142.4703  139.0552  166.5807 C.ar    1  UNL1        0.0001
      3 C         143.0987  138.4925  165.3404 C.ar    1  UNL1        0.0366
      4 C         142.3629  138.5496  164.0346 C.ar    1  UNL1        0.1390
      5 C         140.9985  139.1693  163.9690 C.ar    1  UNL1        0.0366
      6 C         140.3700  139.7320  165.2093 C.ar    1  UNL1        0.0001
      7 C         140.0479  141.6250  169.7001 C.3     1  UNL1        0.1315
      8 C         138.9722  140.5821  169.6281 C.3     1  UNL1        0.0268
      9 C         139.2376  139.7247  168.4262 C.3     1  UNL1        0.0221
     10 C         140.4773  140.2377  167.7555 C.3     1  UNL1        0.0772
     11 N         140.9781  141.4121  168.5428 N.3     1  UNL1       -0.2890
     12 H         140.9923  142.2438  167.9525 H       1  UNL1        0.1239
     13 N         140.0317  144.1369  170.3635 N.am    1  UNL1       -0.3277
     14 C         140.1717  142.6932  170.7458 C.2     1  UNL1        0.2336
     15 O         140.4355  142.3178  172.1739 O.2     1  UNL1       -0.2739
     16 H         140.1130  144.8380  171.0498 H       1  UNL1        0.1450
     17 H         139.8586  144.3833  169.4262 H       1  UNL1        0.1450
     18 O         142.9914  137.9868  162.7943 O.3     1  UNL1       -0.4706
     19 C         144.0478  138.7665  162.0689 C.3     1  UNL1        0.2320
     20 C         144.2246  140.2297  162.3480 C.ar    1  UNL1        0.0212
     21 C         143.4150  141.2407  161.5915 C.ar    1  UNL1       -0.0007
     22 C         143.5918  142.7038  161.8707 C.ar    1  UNL1       -0.0002
     23 C         144.5783  143.1559  162.9062 C.ar    1  UNL1       -0.0000
     24 C         145.3879  142.1449  163.6627 C.ar    1  UNL1       -0.0002
     25 C         145.2111  140.6818  163.3836 C.ar    1  UNL1       -0.0007
@<TRIPOS>BOND
     1    13    14   am
     2    14    15    2
     3     7    14    1
     4     7     8    1
     5     8     9    1
     6     9    10    1
     7    10     1    1
     8     1     2   ar
     9     2     3   ar
    10     3     4   ar
    11     4    18    1
    12    18    19    1
    13    19    20    1
    14    20    21   ar
    15    21    22   ar
    16    22    23   ar
    17    23    24   ar
    18    24    25   ar
    19     4     5   ar
    20     5     6   ar
    21    10    11    1
    22    11     7    1
    23     6     1   ar
    24    25    20   ar
    25    13    16    1
    26    13    17    1
    27    11    12    1
@<TRIPOS>MOLECULE
*****
 25 27 0 0 0
SMALL
GASTEIGER

@<TRIPOS>ATOM
      1 C         140.5373  139.5973  166.6747 C.ar    1  UNL1       -0.0078
      2 C         139.0439  139.4572  166.6629 C.ar    1  UNL1        0.0001
      3 C         138.3434  139.0008  165.4175 C.ar    1  UNL1        0.0366
      4 C         139.1361  138.6846  164.1841 C.ar    1  UNL1        0.1390
      5 C         140.6295  138.8247  164.1959 C.ar    1  UNL1        0.0366
      6 C         141.3301  139.2810  165.4412 C.ar    1  UNL1        0.0001
      7 C         141.7833  141.2718  169.9472 C.3     1  UNL1        0.1315
      8 C         142.8492  140.2399  169.7256 C.3     1  UNL1        0.0268
      9 C         142.5121  139.4870  168.4728 C.3     1  UNL1        0.0221
     10 C         141.2380  140.0536  167.9201 C.3     1  UNL1        0.0772
     11 N         140.7875  141.1567  168.8313 N.3     1  UNL1       -0.2890
     12 H         139.8663  140.9379  169.2106 H       1  UNL1        0.1239
     13 N         142.8031  143.2762  171.2482 N.am    1  UNL1       -0.3277
     14 C         141.7236  142.2476  171.0849 C.2     1  UNL1        0.2336
     15 O         140.5845  142.1946  172.0594 O.2     1  UNL1       -0.2739
     16 H         142.7639  143.9166  171.9949 H       1  UNL1        0.1450
     17 H         143.5507  143.3109  170.6086 H       1  UNL1        0.1450
     18 O         138.4355  138.2282  162.9387 O.3     1  UNL1       -0.4706
     19 C         137.7659  139.2297  162.0450 C.3     1  UNL1        0.2320
     20 C         138.1355  140.6807  162.1353 C.ar    1  UNL1        0.0212
     21 C         137.3110  141.6140  162.9716 C.ar    1  UNL1       -0.0007
     22 C         137.6805  143.0649  163.0619 C.ar    1  UNL1       -0.0002
     23 C         138.8745  143.5826  162.3160 C.ar    1  UNL1       -0.0000
     24 C         139.6990  142.6493  161.4798 C.ar    1  UNL1       -0.0002
     25 C         139.3295  141.1984  161.3894 C.ar    1  UNL1       -0.0007
@<TRIPOS>BOND
     1    13    14   am
     2    14    15    2
     3     7    14    1
     4     7     8    1
     5     8     9    1
     6     9    10    1
     7    10     1    1
     8     1     2   ar
     9     2     3   ar
    10     3     4   ar
    11     4    18    1
    12    18    19    1
    13    19    20    1
    14    20    21   ar
    15    21    22   ar
    16    22    23   ar
    17    23    24   ar
    18    24    25   ar
    19     4     5   ar
    20     5     6   ar
    21    10    11    1
    22    11     7    1
    23     6     1   ar
    24    25    20   ar
    25    13    16    1
    26    13    17    1
    27    11    12    1
@<TRIPOS>MOLECULE
*****
 25 27 0 0 0
SMALL
GASTEIGER

@<TRIPOS>ATOM
      1 C         142.8553  140.9457  166.7749 C.ar    1  UNL1       -0.0078
      2 C         142.8859  139.4475  166.8412 C.ar    1  UNL1        0.0001
      3 C         143.2489  138.6501  165.6237 C.ar    1  UNL1        0.0366
      4 C         143.5813  139.3509  164.3399 C.ar    1  UNL1        0.1390
      5 C         143.5507  140.8491  164.2735 C.ar    1  UNL1        0.0366
      6 C         143.1877  141.6465  165.4910 C.ar    1  UNL1        0.0001
      7 C         141.2194  142.9931  169.6380 C.3     1  UNL1        0.1315
      8 C         142.6478  142.9474  170.0939 C.3     1  UNL1        0.0268
      9 C         143.4344  142.1748  169.0768 C.3     1  UNL1        0.0221
     10 C         142.4922  141.7431  167.9924 C.3     1  UNL1        0.0772
     11 N         141.1233  142.2488  168.3393 N.3     1  UNL1       -0.2890
     12 H         140.4789  141.4642  168.4368 H       1  UNL1        0.1239
     13 N         139.0554  142.8406  171.0676 N.am    1  UNL1       -0.3277
     14 C         140.0862  143.6651  170.3551 C.2     1  UNL1        0.2336
     15 O         139.9837  145.1616  170.3596 O.2     1  UNL1       -0.2739
     16 H         138.3116  143.2817  171.5382 H       1  UNL1        0.1450
     17 H         139.1226  141.8584  171.0646 H       1  UNL1        0.1450
     18 O         143.9444  138.5535  163.1223 O.3     1  UNL1       -0.4706
     19 C         142.8733  138.1038  162.1734 C.3     1  UNL1        0.2320
     20 C         141.4304  138.3557  162.4971 C.ar    1  UNL1        0.0212
     21 C         140.6504  137.3440  163.2832 C.ar    1  UNL1       -0.0007
     22 C         139.2076  137.5960  163.6069 C.ar    1  UNL1       -0.0002
     23 C         138.5448  138.8597  163.1445 C.ar    1  UNL1       -0.0000
     24 C         139.3248  139.8714  162.3584 C.ar    1  UNL1       -0.0002
     25 C         140.7676  139.6195  162.0348 C.ar    1  UNL1       -0.0007
@<TRIPOS>BOND
     1    13    14   am
     2    14    15    2
     3     7    14    1
     4     7     8    1
     5     8     9    1
     6     9    10    1
     7    10     1    1
     8     1     2   ar
     9     2     3   ar
    10     3     4   ar
    11     4    18    1
    12    18    19    1
    13    19    20    1
    14    20    21   ar
    15    21    22   ar
    16    22    23   ar
    17    23    24   ar
    18    24    25   ar
    19     4     5   ar
    20     5     6   ar
    21    10    11    1
    22    11     7    1
    23     6     1   ar
    24    25    20   ar
    25    13    16    1
    26    13    17    1
    27    11    12    1
@<TRIPOS>MOLECULE
*****
 25 27 0 0 0
SMALL
GASTEIGER

@<TRIPOS>ATOM
      1 C         139.5663  140.5567  166.1685 C.ar    1  UNL1       -0.0078
      2 C         139.3544  139.0718  166.1634 C.ar    1  UNL1        0.0001
      3 C         138.8441  138.3913  164.9278 C.ar    1  UNL1        0.0366
      4 C         138.5458  139.1958  163.6975 C.ar    1  UNL1        0.1390
      5 C         138.7577  140.6807  163.7026 C.ar    1  UNL1        0.0366
      6 C         139.2680  141.3612  164.9382 C.ar    1  UNL1        0.0001
      7 C         140.8243  141.6350  169.6786 C.3     1  UNL1        0.1315
      8 C         140.8994  142.9339  168.9321 C.3     1  UNL1        0.0268
      9 C         140.4373  142.6881  167.5264 C.3     1  UNL1        0.0221
     10 C         140.0766  141.2372  167.4041 C.3     1  UNL1        0.0772
     11 N         140.3158  140.5864  168.7342 N.3     1  UNL1       -0.2890
     12 H         141.0080  139.8435  168.6366 H       1  UNL1        0.1239
     13 N         142.3007  140.4761  171.4751 N.am    1  UNL1       -0.3277
     14 C         141.1930  141.4220  171.1169 C.2     1  UNL1        0.2336
     15 O         140.4541  142.1550  172.1970 O.2     1  UNL1       -0.2739
     16 H         142.5427  140.3364  172.4191 H       1  UNL1        0.1450
     17 H         142.7857  139.9951  170.7662 H       1  UNL1        0.1450
     18 O         138.0355  138.5153  162.4619 O.3     1  UNL1       -0.4706
     19 C         138.9937  138.0950  161.3871 C.3     1  UNL1        0.2320
     20 C         140.4371  138.4948  161.4708 C.ar    1  UNL1        0.0212
     21 C         140.9203  139.7160  160.7461 C.ar    1  UNL1       -0.0007
     22 C         142.3636  140.1157  160.8299 C.ar    1  UNL1       -0.0002
     23 C         143.3237  139.2943  161.6383 C.ar    1  UNL1       -0.0000
     24 C         142.8404  138.0731  162.3629 C.ar    1  UNL1       -0.0002
     25 C         141.3971  137.6734  162.2792 C.ar    1  UNL1       -0.0007
@<TRIPOS>BOND
     1    13    14   am
     2    14    15    2
     3     7    14    1
     4     7     8    1
     5     8     9    1
     6     9    10    1
     7    10     1    1
     8     1     2   ar
     9     2     3   ar
    10     3     4   ar
    11     4    18    1
    12    18    19    1
    13    19    20    1
    14    20    21   ar
    15    21    22   ar
    16    22    23   ar
    17    23    24   ar
    18    24    25   ar
    19     4     5   ar
    20     5     6   ar
    21    10    11    1
    22    11     7    1
    23     6     1   ar
    24    25    20   ar
    25    13    16    1
    26    13    17    1
    27    11    12    1
@<TRIPOS>MOLECULE
*****
 25 27 0 0 0
SMALL
GASTEIGER

@<TRIPOS>ATOM
      1 C         139.7635  142.3701  166.0338 C.ar    1  UNL1       -0.0078
      2 C         139.7490  141.6025  164.7452 C.ar    1  UNL1        0.0001
      3 C         139.5123  142.3184  163.4485 C.ar    1  UNL1        0.0366
      4 C         139.2900  143.8018  163.4405 C.ar    1  UNL1        0.1390
      5 C         139.3045  144.5694  164.7291 C.ar    1  UNL1        0.0366
      6 C         139.5412  143.8535  166.0258 C.ar    1  UNL1        0.0001
      7 C         140.6469  141.1814  169.6217 C.3     1  UNL1        0.1315
      8 C         140.0823  139.9237  169.0304 C.3     1  UNL1        0.0268
      9 C         139.6827  140.2159  167.6145 C.3     1  UNL1        0.0221
     10 C         140.0003  141.6542  167.3306 C.3     1  UNL1        0.0772
     11 N         140.5962  142.2509  168.5711 N.3     1  UNL1       -0.2890
     12 H         140.0180  143.0265  168.8943 H       1  UNL1        0.1239
     13 N         142.3869  140.5807  171.4551 N.am    1  UNL1       -0.3277
     14 C         141.1703  141.3415  171.0183 C.2     1  UNL1        0.2336
     15 O         140.4770  142.2625  171.9780 O.2     1  UNL1       -0.2739
     16 H         142.7304  140.6857  172.3717 H       1  UNL1        0.1450
     17 H         142.8419  139.9762  170.8251 H       1  UNL1        0.1450
     18 O         139.0532  144.5177  162.1437 O.3     1  UNL1       -0.4706
     19 C         140.2125  145.0756  161.3725 C.3     1  UNL1        0.2320
     20 C         141.6101  144.6400  161.6994 C.ar    1  UNL1        0.0212
     21 C         142.3309  145.2460  162.8669 C.ar    1  UNL1       -0.0007
     22 C         143.7285  144.8103  163.1937 C.ar    1  UNL1       -0.0002
     23 C         144.4053  143.7686  162.3531 C.ar    1  UNL1       -0.0000
     24 C         143.6845  143.1625  161.1855 C.ar    1  UNL1       -0.0002
     25 C         142.2869  143.5982  160.8587 C.ar    1  UNL1       -0.0007
@<TRIPOS>BOND
     1    13    14   am
     2    14    15    2
     3     7    14    1
     4     7     8    1
     5     8     9    1
     6     9    10    1
     7    10     1    1
     8     1     2   ar
     9     2     3   ar
    10     3     4   ar
    11     4    18    1
    12    18    19    1
    13    19    20    1
    14    20    21   ar
    15    21    22   ar
    16    22    23   ar
    17    23    24   ar
    18    24    25   ar
    19     4     5   ar
    20     5     6   ar
    21    10    11    1
    22    11     7    1
    23     6     1   ar
    24    25    20   ar
    25    13    16    1
    26    13    17    1
    27    11    12    1
@<TRIPOS>MOLECULE
*****
 25 27 0 0 0
SMALL
GASTEIGER

@<TRIPOS>ATOM
      1 C         142.3410  140.9677  165.9322 C.ar    1  UNL1       -0.0078
      2 C         143.0062  139.6269  166.0312 C.ar    1  UNL1        0.0001
      3 C         143.4174  138.8999  164.7853 C.ar    1  UNL1        0.0366
      4 C         143.1635  139.5137  163.4404 C.ar    1  UNL1        0.1390
      5 C         142.4983  140.8545  163.3414 C.ar    1  UNL1        0.0366
      6 C         142.0871  141.5815  164.5873 C.ar    1  UNL1        0.0001
      7 C         141.9202  142.5775  169.4389 C.3     1  UNL1        0.1315
      8 C         140.6733  143.0498  168.7517 C.3     1  UNL1        0.0268
      9 C         140.6792  142.5042  167.3544 C.3     1  UNL1        0.0221
     10 C         141.9297  141.6948  167.1781 C.3     1  UNL1        0.0772
     11 N         142.6967  141.7400  168.4664 N.3     1  UNL1       -0.2890
     12 H         143.6149  142.1551  168.3082 H       1  UNL1        0.1239
     13 N         143.3822  143.9123  171.1214 N.am    1  UNL1       -0.3277
     14 C         142.3204  142.8881  170.8508 C.2     1  UNL1        0.2336
     15 O         141.6586  142.1743  171.9922 O.2     1  UNL1       -0.2739
     16 H         143.6449  144.1162  172.0480 H       1  UNL1        0.1450
     17 H         143.8166  144.3808  170.3723 H       1  UNL1        0.1450
     18 O         143.5748  138.7866  162.1944 O.3     1  UNL1       -0.4706
     19 C         142.6452  137.7917  161.5653 C.3     1  UNL1        0.2320
     20 C         141.1619  137.9427  161.7298 C.ar    1  UNL1        0.0212
     21 C         140.3488  138.5872  160.6465 C.ar    1  UNL1       -0.0007
     22 C         138.8656  138.7382  160.8112 C.ar    1  UNL1       -0.0002
     23 C         138.1954  138.2447  162.0591 C.ar    1  UNL1       -0.0000
     24 C         139.0084  137.6002  163.1424 C.ar    1  UNL1       -0.0002
     25 C         140.4916  137.4492  162.9777 C.ar    1  UNL1       -0.0007
@<TRIPOS>BOND
     1    13    14   am
     2    14    15    2
     3     7    14    1
     4     7     8    1
     5     8     9    1
     6     9    10    1
     7    10     1    1
     8     1     2   ar
     9     2     3   ar
    10     3     4   ar
    11     4    18    1
    12    18    19    1
    13    19    20    1
    14    20    21   ar
    15    21    22   ar
    16    22    23   ar
    17    23    24   ar
    18    24    25   ar
    19     4     5   ar
    20     5     6   ar
    21    10    11    1
    22    11     7    1
    23     6     1   ar
    24    25    20   ar
    25    13    16    1
    26    13    17    1
    27    11    12    1
@<TRIPOS>MOLECULE
*****
 25 27 0 0 0
SMALL
GASTEIGER

@<TRIPOS>ATOM
      1 C         140.4982  143.0351  166.1159 C.ar    1  UNL1       -0.0078
      2 C         139.3016  143.8713  165.7712 C.ar    1  UNL1        0.0001
      3 C         139.3120  144.7221  164.5359 C.ar    1  UNL1        0.0366
      4 C         140.5190  144.7367  163.6454 C.ar    1  UNL1        0.1390
      5 C         141.7156  143.9005  163.9902 C.ar    1  UNL1        0.0366
      6 C         141.7051  143.0497  165.2254 C.ar    1  UNL1        0.0001
      7 C         140.8254  141.4182  169.6294 C.3     1  UNL1        0.1315
      8 C         140.1182  140.3315  168.8750 C.3     1  UNL1        0.0268
      9 C         139.9096  140.8050  167.4670 C.3     1  UNL1        0.0221
     10 C         140.4878  142.1842  167.3513 C.3     1  UNL1        0.0772
     11 N         141.0538  142.5632  168.6877 N.3     1  UNL1       -0.2890
     12 H         140.5846  143.3984  169.0380 H       1  UNL1        0.1239
     13 N         142.3822  140.5041  171.4977 N.am    1  UNL1       -0.3277
     14 C         141.2326  141.3686  171.0722 C.2     1  UNL1        0.2336
     15 O         140.4903  142.1834  172.0895 O.2     1  UNL1       -0.2739
     16 H         142.6495  140.4715  172.4447 H       1  UNL1        0.1450
     17 H         142.8694  139.9693  170.8300 H       1  UNL1        0.1450
     18 O         140.5294  145.5876  162.4100 O.3     1  UNL1       -0.4706
     19 C         140.1065  145.0046  161.0943 C.3     1  UNL1        0.2320
     20 C         139.8262  143.5354  160.9802 C.ar    1  UNL1        0.0212
     21 C         140.9052  142.5994  160.5225 C.ar    1  UNL1       -0.0007
     22 C         140.6249  141.1302  160.4085 C.ar    1  UNL1       -0.0002
     23 C         139.2656  140.5972  160.7522 C.ar    1  UNL1       -0.0000
     24 C         138.1866  141.5332  161.2099 C.ar    1  UNL1       -0.0002
     25 C         138.4669  143.0024  161.3239 C.ar    1  UNL1       -0.0007
@<TRIPOS>BOND
     1    13    14   am
     2    14    15    2
     3     7    14    1
     4     7     8    1
     5     8     9    1
     6     9    10    1
     7    10     1    1
     8     1     2   ar
     9     2     3   ar
    10     3     4   ar
    11     4    18    1
    12    18    19    1
    13    19    20    1
    14    20    21   ar
    15    21    22   ar
    16    22    23   ar
    17    23    24   ar
    18    24    25   ar
    19     4     5   ar
    20     5     6   ar
    21    10    11    1
    22    11     7    1
    23     6     1   ar
    24    25    20   ar
    25    13    16    1
    26    13    17    1
    27    11    12    1
@<TRIPOS>MOLECULE
*****
 25 27 0 0 0
SMALL
GASTEIGER

@<TRIPOS>ATOM
      1 C         139.7047  140.3550  166.1933 C.ar    1  UNL1       -0.0078
      2 C         140.9008  140.6580  165.3404 C.ar    1  UNL1        0.0001
      3 C         140.8149  140.5142  163.8498 C.ar    1  UNL1        0.0366
      4 C         139.5328  140.0674  163.2122 C.ar    1  UNL1        0.1390
      5 C         138.3367  139.7644  164.0650 C.ar    1  UNL1        0.0366
      6 C         138.4226  139.9082  165.5556 C.ar    1  UNL1        0.0001
      7 C         140.5056  141.1855  169.8993 C.3     1  UNL1        0.1315
      8 C         139.3401  140.2544  170.0563 C.3     1  UNL1        0.0268
      9 C         138.8982  139.8300  168.6872 C.3     1  UNL1        0.0221
     10 C         139.7907  140.4988  167.6840 C.3     1  UNL1        0.0772
     11 N         140.7840  141.3365  168.4331 N.3     1  UNL1       -0.2890
     12 H         140.6867  142.3148  168.1613 H       1  UNL1        0.1239
     13 N         142.7266  142.1274  170.8638 N.am    1  UNL1       -0.3277
     14 C         141.2602  141.8492  171.0130 C.2     1  UNL1        0.2336
     15 O         140.5483  142.2346  172.2758 O.2     1  UNL1       -0.2739
     16 H         143.2218  142.5629  171.5948 H       1  UNL1        0.1450
     17 H         143.1938  141.8744  170.0350 H       1  UNL1        0.1450
     18 O         139.4468  139.9236  161.7215 O.3     1  UNL1       -0.4706
     19 C         139.0917  141.1084  160.8730 C.3     1  UNL1        0.2320
     20 C         139.0958  142.4854  161.4680 C.ar    1  UNL1        0.0212
     21 C         140.2791  143.3853  161.2682 C.ar    1  UNL1       -0.0007
     22 C         140.2832  144.7621  161.8632 C.ar    1  UNL1       -0.0002
     23 C         139.1040  145.2391  162.6582 C.ar    1  UNL1       -0.0000
     24 C         137.9207  144.3392  162.8581 C.ar    1  UNL1       -0.0002
     25 C         137.9166  142.9624  162.2630 C.ar    1  UNL1       -0.0007
@<TRIPOS>BOND
     1    13    14   am
     2    14    15    2
     3     7    14    1
     4     7     8    1
     5     8     9    1
     6     9    10    1
     7    10     1    1
     8     1     2   ar
     9     2     3   ar
    10     3     4   ar
    11     4    18    1
    12    18    19    1
    13    19    20    1
    14    20    21   ar
    15    21    22   ar
    16    22    23   ar
    17    23    24   ar
    18    24    25   ar
    19     4     5   ar
    20     5     6   ar
    21    10    11    1
    22    11     7    1
    23     6     1   ar
    24    25    20   ar
    25    13    16    1
    26    13    17    1
    27    11    12    1
@<TRIPOS>MOLECULE
*****
 25 27 0 0 0
SMALL
GASTEIGER

@<TRIPOS>ATOM
      1 C         140.3807  142.8184  165.4334 C.ar    1  UNL1       -0.0078
      2 C         138.9663  142.3616  165.2319 C.ar    1  UNL1        0.0001
      3 C         138.2939  142.5655  163.9067 C.ar    1  UNL1        0.0366
      4 C         139.0360  143.2262  162.7829 C.ar    1  UNL1        0.1390
      5 C         140.4504  143.6830  162.9844 C.ar    1  UNL1        0.0366
      6 C         141.1228  143.4791  164.3096 C.ar    1  UNL1        0.0001
      7 C         141.4576  142.5050  169.1493 C.3     1  UNL1        0.1315
      8 C         142.7184  142.0967  168.4467 C.3     1  UNL1        0.0268
      9 C         142.4685  142.1644  166.9693 C.3     1  UNL1        0.0221
     10 C         141.0532  142.6146  166.7587 C.3     1  UNL1        0.0772
     11 N         140.4284  142.8251  168.1060 N.3     1  UNL1       -0.2890
     12 H         139.6228  142.2089  168.2141 H       1  UNL1        0.1239
     13 N         142.4320  142.4117  171.5559 N.am    1  UNL1       -0.3277
     14 C         141.2605  142.5801  170.6344 C.2     1  UNL1        0.2336
     15 O         139.8919  142.8236  171.1980 O.2     1  UNL1       -0.2739
     16 H         142.3027  142.4610  172.5306 H       1  UNL1        0.1450
     17 H         143.3303  142.2518  171.1860 H       1  UNL1        0.1450
     18 O         138.3635  143.4300  161.4576 O.3     1  UNL1       -0.4706
     19 C         138.4793  142.3838  160.3891 C.3     1  UNL1        0.2320
     20 C         138.7558  140.9575  160.7626 C.ar    1  UNL1        0.0212
     21 C         137.6265  140.0539  161.1600 C.ar    1  UNL1       -0.0007
     22 C         137.9030  138.6277  161.5335 C.ar    1  UNL1       -0.0002
     23 C         139.3089  138.1052  161.5097 C.ar    1  UNL1       -0.0000
     24 C         140.4382  139.0089  161.1123 C.ar    1  UNL1       -0.0002
     25 C         140.1617  140.4350  160.7388 C.ar    1  UNL1       -0.0007
@<TRIPOS>BOND
     1    13    14   am
     2    14    15    2
     3     7    14    1
     4     7     8    1
     5     8     9    1
     6     9    10    1
     7    10     1    1
     8     1     2   ar
     9     2     3   ar
    10     3     4   ar
    11     4    18    1
    12    18    19    1
    13    19    20    1
    14    20    21   ar
    15    21    22   ar
    16    22    23   ar
    17    23    24   ar
    18    24    25   ar
    19     4     5   ar
    20     5     6   ar
    21    10    11    1
    22    11     7    1
    23     6     1   ar
    24    25    20   ar
    25    13    16    1
    26    13    17    1
    27    11    12    1
