@<TRIPOS>MOLECULE
*****
 32 36 0 0 0
SMALL
GASTEIGER

@<TRIPOS>ATOM
      1 C         142.8037  138.7133  163.6011 C.3     1  UNL1        0.0870
      2 C         141.7008  138.2894  164.5252 C.3     1  UNL1        0.0226
      3 C         142.0608  138.7348  165.9115 C.3     1  UNL1        0.0033
      4 C         142.6785  139.2932  167.1593 C.3     1  UNL1        0.0159
      5 C         143.3863  139.4339  165.8443 C.3     1  UNL1        0.0033
      6 C         143.8454  139.4205  164.4163 C.3     1  UNL1        0.0226
      7 F         138.9720  139.0115  157.6126 F       1  UNL1       -0.2017
      8 C         139.8909  138.9011  158.7931 C.ar    1  UNL1        0.1690
      9 C         141.3017  138.4277  158.6037 C.ar    1  UNL1        0.0526
     10 C         142.2205  138.3174  159.7842 C.ar    1  UNL1        0.1011
     11 N         143.6516  137.8847  159.9051 N.ar    1  UNL1       -0.2239
     12 C         144.0442  137.9804  161.3496 C.ar    1  UNL1        0.1785
     13 N         142.8558  138.4721  162.1215 N.ar    1  UNL1       -0.3109
     14 C         141.7286  138.6805  161.1540 C.ar    1  UNL1        0.0813
     15 C         140.3179  139.1538  161.3433 C.ar    1  UNL1        0.0507
     16 C         139.3991  139.2641  160.1628 C.ar    1  UNL1        0.1689
     17 F         137.9883  139.7375  160.3522 F       1  UNL1       -0.2017
     18 C         142.6264  139.5343  168.6388 C.3     1  UNL1        0.0689
     19 N         141.3029  139.6006  169.3417 N.3     1  UNL1       -0.2882
     20 H         141.5018  139.7566  170.3299 H       1  UNL1        0.1237
     21 C         140.2892  140.6292  168.9365 C.3     1  UNL1        0.1731
     22 C         139.6532  140.5617  167.5796 C.ar    1  UNL1        0.0003
     23 C         139.9099  141.6466  166.5763 C.ar    1  UNL1       -0.0018
     24 C         139.2739  141.5792  165.2195 C.ar    1  UNL1        0.0111
     25 C         138.3812  140.4268  164.8660 C.ar    1  UNL1        0.0577
     26 CL        137.7452  140.3593  163.5092 Cl      1  UNL1       -0.0822
     27 C         138.1245  139.3417  165.8695 C.ar    1  UNL1        0.0111
     28 C         138.7605  139.4092  167.2263 C.ar    1  UNL1       -0.0018
     29 C         139.9114  141.7254  169.8881 C.3     1  UNL1        0.4142
     30 F         139.5336  142.8217  170.8397 F       1  UNL1       -0.1682
     31 F         138.6061  141.0388  170.1611 F       1  UNL1       -0.1682
     32 F         141.2168  142.4121  169.6152 F       1  UNL1       -0.1682
@<TRIPOS>BOND
     1     7     8    1
     2     8     9   ar
     3     9    10   ar
     4    10    11   ar
     5    11    12   ar
     6    12    13   ar
     7     1    13    1
     8     1     2    1
     9     3     2    1
    10     3     4    1
    11     4    18    1
    12    18    19    1
    13    19    21    1
    14    21    22    1
    15    22    23   ar
    16    23    24   ar
    17    24    25   ar
    18    25    26    1
    19    25    27   ar
    20    27    28   ar
    21    21    29    1
    22    29    30    1
    23    29    31    1
    24    29    32    1
    25     4     5    1
    26     5     6    1
    27    13    14   ar
    28    14    15   ar
    29    15    16   ar
    30    16    17    1
    31    16     8   ar
    32    14    10   ar
    33     6     1    1
    34     5     3    1
    35    28    22   ar
    36    19    20    1
@<TRIPOS>MOLECULE
*****
 32 36 0 0 0
SMALL
GASTEIGER

@<TRIPOS>ATOM
      1 C         143.2730  139.4643  164.0972 C.3     1  UNL1        0.0870
      2 C         143.7283  140.4800  165.1028 C.3     1  UNL1        0.0226
      3 C         143.2471  140.0420  166.4544 C.3     1  UNL1        0.0033
      4 C         142.6443  139.3620  167.6479 C.3     1  UNL1        0.0159
      5 C         142.4944  138.7557  166.2841 C.3     1  UNL1        0.0033
      6 C         142.5105  138.3987  164.8273 C.3     1  UNL1        0.0226
      7 F         143.2312  143.7206  158.3950 F       1  UNL1       -0.2017
      8 C         143.2839  142.7163  159.5081 C.ar    1  UNL1        0.1690
      9 C         143.6994  141.3032  159.2241 C.ar    1  UNL1        0.0526
     10 C         143.7521  140.2990  160.3370 C.ar    1  UNL1        0.1011
     11 N         144.1213  138.8453  160.3606 N.ar    1  UNL1       -0.2239
     12 C         143.9868  138.3557  161.7720 C.ar    1  UNL1        0.1785
     13 N         143.5345  139.5068  162.6208 N.ar    1  UNL1       -0.3109
     14 C         143.3894  140.7078  161.7339 C.ar    1  UNL1        0.0813
     15 C         142.9740  142.1209  162.0179 C.ar    1  UNL1        0.0507
     16 C         142.9213  143.1251  160.9049 C.ar    1  UNL1        0.1689
     17 F         142.5058  144.5382  161.1889 F       1  UNL1       -0.2017
     18 C         142.3829  139.3195  169.1243 C.3     1  UNL1        0.0689
     19 N         140.9944  139.5405  169.6467 N.3     1  UNL1       -0.2882
     20 H         141.0827  139.7374  170.6436 H       1  UNL1        0.1237
     21 C         140.1382  140.6261  169.0652 C.3     1  UNL1        0.1731
     22 C         139.6045  140.4939  167.6695 C.ar    1  UNL1        0.0003
     23 C         138.7673  139.3068  167.2960 C.ar    1  UNL1       -0.0018
     24 C         138.2336  139.1746  165.9004 C.ar    1  UNL1        0.0111
     25 C         138.5373  140.2295  164.8783 C.ar    1  UNL1        0.0577
     26 CL        138.0037  140.0973  163.4827 Cl      1  UNL1       -0.0822
     27 C         139.3746  141.4167  165.2518 C.ar    1  UNL1        0.0111
     28 C         139.9082  141.5489  166.6474 C.ar    1  UNL1       -0.0018
     29 C         139.8155  141.8440  169.8792 C.3     1  UNL1        0.4142
     30 F         139.4929  143.0619  170.6932 F       1  UNL1       -0.1682
     31 F         138.4974  141.2391  170.2619 F       1  UNL1       -0.1682
     32 F         141.1336  142.4490  169.4964 F       1  UNL1       -0.1682
@<TRIPOS>BOND
     1     7     8    1
     2     8     9   ar
     3     9    10   ar
     4    10    11   ar
     5    11    12   ar
     6    12    13   ar
     7     1    13    1
     8     1     2    1
     9     3     2    1
    10     3     4    1
    11     4    18    1
    12    18    19    1
    13    19    21    1
    14    21    22    1
    15    22    23   ar
    16    23    24   ar
    17    24    25   ar
    18    25    26    1
    19    25    27   ar
    20    27    28   ar
    21    21    29    1
    22    29    30    1
    23    29    31    1
    24    29    32    1
    25     4     5    1
    26     5     6    1
    27    13    14   ar
    28    14    15   ar
    29    15    16   ar
    30    16    17    1
    31    16     8   ar
    32    14    10   ar
    33     6     1    1
    34     5     3    1
    35    28    22   ar
    36    19    20    1
@<TRIPOS>MOLECULE
*****
 32 36 0 0 0
SMALL
GASTEIGER

@<TRIPOS>ATOM
      1 C         139.0803  139.6762  163.9064 C.3     1  UNL1        0.0870
      2 C         139.1700  138.5505  164.8937 C.3     1  UNL1        0.0226
      3 C         139.2844  139.1455  166.2659 C.3     1  UNL1        0.0033
      4 C         139.3844  140.0138  167.4850 C.3     1  UNL1        0.0159
      5 C         139.2654  140.6389  166.1267 C.3     1  UNL1        0.0033
      6 C         139.1392  140.9669  164.6685 C.3     1  UNL1        0.0226
      7 F         142.5836  137.7567  158.0179 F       1  UNL1       -0.2017
      8 C         141.7305  138.1898  159.1733 C.ar    1  UNL1        0.1690
      9 C         140.3198  138.6413  158.9362 C.ar    1  UNL1        0.0526
     10 C         139.4668  139.0743  160.0915 C.ar    1  UNL1        0.1011
     11 N         138.0515  139.5657  160.1654 N.ar    1  UNL1       -0.2239
     12 C         137.7345  139.8510  161.6035 C.ar    1  UNL1        0.1785
     13 N         138.9538  139.5359  162.4184 N.ar    1  UNL1       -0.3109
     14 C         140.0245  139.0559  161.4839 C.ar    1  UNL1        0.0813
     15 C         141.4352  138.6044  161.7209 C.ar    1  UNL1        0.0507
     16 C         142.2881  138.1713  160.5656 C.ar    1  UNL1        0.1689
     17 F         143.6989  137.7198  160.8027 F       1  UNL1       -0.2017
     18 C         139.5108  140.1541  168.9731 C.3     1  UNL1        0.0689
     19 N         140.8676  140.1674  169.6125 N.3     1  UNL1       -0.2882
     20 H         141.1810  139.1978  169.6585 H       1  UNL1        0.1237
     21 C         141.9827  140.9537  168.9895 C.3     1  UNL1        0.1731
     22 C         142.5772  140.5087  167.6861 C.ar    1  UNL1        0.0003
     23 C         142.9013  139.0610  167.4651 C.ar    1  UNL1       -0.0018
     24 C         143.4958  138.6160  166.1618 C.ar    1  UNL1        0.0111
     25 C         143.7662  139.6187  165.0796 C.ar    1  UNL1        0.0577
     26 CL        144.3607  139.1737  163.7763 Cl      1  UNL1       -0.0822
     27 C         143.4421  141.0665  165.3006 C.ar    1  UNL1        0.0111
     28 C         142.8476  141.5115  166.6039 C.ar    1  UNL1       -0.0018
     29 C         142.5034  142.1851  169.6696 C.3     1  UNL1        0.4142
     30 F         143.0242  143.4164  170.3498 F       1  UNL1       -0.1682
     31 F         141.2179  142.8961  169.3667 F       1  UNL1       -0.1682
     32 F         143.7889  141.4740  169.9726 F       1  UNL1       -0.1682
@<TRIPOS>BOND
     1     7     8    1
     2     8     9   ar
     3     9    10   ar
     4    10    11   ar
     5    11    12   ar
     6    12    13   ar
     7     1    13    1
     8     1     2    1
     9     3     2    1
    10     3     4    1
    11     4    18    1
    12    18    19    1
    13    19    21    1
    14    21    22    1
    15    22    23   ar
    16    23    24   ar
    17    24    25   ar
    18    25    26    1
    19    25    27   ar
    20    27    28   ar
    21    21    29    1
    22    29    30    1
    23    29    31    1
    24    29    32    1
    25     4     5    1
    26     5     6    1
    27    13    14   ar
    28    14    15   ar
    29    15    16   ar
    30    16    17    1
    31    16     8   ar
    32    14    10   ar
    33     6     1    1
    34     5     3    1
    35    28    22   ar
    36    19    20    1
@<TRIPOS>MOLECULE
*****
 32 36 0 0 0
SMALL
GASTEIGER

@<TRIPOS>ATOM
      1 C         138.7391  140.0378  164.2295 C.3     1  UNL1        0.0870
      2 C         138.5716  138.8909  165.1817 C.3     1  UNL1        0.0226
      3 C         138.9610  139.3644  166.5507 C.3     1  UNL1        0.0033
      4 C         139.4048  140.1103  167.7741 C.3     1  UNL1        0.0159
      5 C         139.3691  140.8039  166.4447 C.3     1  UNL1        0.0033
      6 C         139.2319  141.2201  165.0101 C.3     1  UNL1        0.0226
      7 F         139.2380  143.8331  158.2312 F       1  UNL1       -0.2017
      8 C         139.0741  142.9264  159.4150 C.ar    1  UNL1        0.1690
      9 C         138.4763  141.5621  159.2377 C.ar    1  UNL1        0.0526
     10 C         138.3124  140.6556  160.4214 C.ar    1  UNL1        0.1011
     11 N         137.7601  139.2672  160.5535 N.ar    1  UNL1       -0.2239
     12 C         137.8527  138.8669  161.9961 C.ar    1  UNL1        0.1785
     13 N         138.4622  140.0078  162.7556 N.ar    1  UNL1       -0.3109
     14 C         138.7464  141.1132  161.7824 C.ar    1  UNL1        0.0813
     15 C         139.3442  142.4775  161.9596 C.ar    1  UNL1        0.0507
     16 C         139.5081  143.3841  160.7759 C.ar    1  UNL1        0.1689
     17 F         140.1059  144.7484  160.9531 F       1  UNL1       -0.2017
     18 C         139.6816  140.1404  169.2481 C.3     1  UNL1        0.0689
     19 N         141.0962  140.1110  169.7462 N.3     1  UNL1       -0.2882
     20 H         141.4089  139.1419  169.6877 H       1  UNL1        0.1237
     21 C         142.1455  140.9459  169.0741 C.3     1  UNL1        0.1731
     22 C         142.6785  140.5426  167.7312 C.ar    1  UNL1        0.0003
     23 C         142.9304  139.0953  167.4282 C.ar    1  UNL1       -0.0018
     24 C         143.4634  138.6919  166.0854 C.ar    1  UNL1        0.0111
     25 C         143.7445  139.7358  165.0456 C.ar    1  UNL1        0.0577
     26 CL        144.2775  139.3324  163.7028 Cl      1  UNL1       -0.0822
     27 C         143.4927  141.1831  165.3486 C.ar    1  UNL1        0.0111
     28 C         142.9596  141.5865  166.6914 C.ar    1  UNL1       -0.0018
     29 C         142.6619  142.1843  169.7448 C.3     1  UNL1        0.4142
     30 F         143.1784  143.4226  170.4155 F       1  UNL1       -0.1682
     31 F         141.3915  142.9022  169.3977 F       1  UNL1       -0.1682
     32 F         143.9324  141.4664  170.0919 F       1  UNL1       -0.1682
@<TRIPOS>BOND
     1     7     8    1
     2     8     9   ar
     3     9    10   ar
     4    10    11   ar
     5    11    12   ar
     6    12    13   ar
     7     1    13    1
     8     1     2    1
     9     3     2    1
    10     3     4    1
    11     4    18    1
    12    18    19    1
    13    19    21    1
    14    21    22    1
    15    22    23   ar
    16    23    24   ar
    17    24    25   ar
    18    25    26    1
    19    25    27   ar
    20    27    28   ar
    21    21    29    1
    22    29    30    1
    23    29    31    1
    24    29    32    1
    25     4     5    1
    26     5     6    1
    27    13    14   ar
    28    14    15   ar
    29    15    16   ar
    30    16    17    1
    31    16     8   ar
    32    14    10   ar
    33     6     1    1
    34     5     3    1
    35    28    22   ar
    36    19    20    1
@<TRIPOS>MOLECULE
*****
 32 36 0 0 0
SMALL
GASTEIGER

@<TRIPOS>ATOM
      1 C         142.7318  138.7435  163.9595 C.3     1  UNL1        0.0870
      2 C         143.9064  138.8487  164.8865 C.3     1  UNL1        0.0226
      3 C         143.3821  139.0159  166.2819 C.3     1  UNL1        0.0033
      4 C         142.5771  139.1678  167.5384 C.3     1  UNL1        0.0159
      5 C         141.8835  139.0141  166.2174 C.3     1  UNL1        0.0033
      6 C         141.4816  138.8458  164.7820 C.3     1  UNL1        0.0226
      7 F         138.9158  139.1909  157.9703 F       1  UNL1       -0.2017
      8 C         139.8330  139.0557  159.1496 C.ar    1  UNL1        0.1690
      9 C         141.2570  138.6298  158.9472 C.ar    1  UNL1        0.0526
     10 C         142.1741  138.4946  160.1265 C.ar    1  UNL1        0.1011
     11 N         143.6162  138.0966  160.2359 N.ar    1  UNL1       -0.2239
     12 C         144.0006  138.1414  161.6851 C.ar    1  UNL1        0.1785
     13 N         142.7961  138.5671  162.4713 N.ar    1  UNL1       -0.3109
     14 C         141.6673  138.7854  161.5080 C.ar    1  UNL1        0.0813
     15 C         140.2433  139.2113  161.7103 C.ar    1  UNL1        0.0507
     16 C         139.3262  139.3465  160.5310 C.ar    1  UNL1        0.1689
     17 F         137.9022  139.7725  160.7334 F       1  UNL1       -0.2017
     18 C         142.5128  139.3442  169.0266 C.3     1  UNL1        0.0689
     19 N         141.9099  140.5881  169.6090 N.3     1  UNL1       -0.2882
     20 H         142.0835  140.5569  170.6137 H       1  UNL1        0.1237
     21 C         142.3645  141.9358  169.1327 C.3     1  UNL1        0.1731
     22 C         142.1836  142.3235  167.6949 C.ar    1  UNL1        0.0003
     23 C         140.8038  142.4937  167.1319 C.ar    1  UNL1       -0.0018
     24 C         140.6230  142.8813  165.6942 C.ar    1  UNL1        0.0111
     25 C         141.8219  143.0988  164.8195 C.ar    1  UNL1        0.0577
     26 CL        141.6411  143.4864  163.3818 Cl      1  UNL1       -0.0822
     27 C         143.2018  142.9286  165.3826 C.ar    1  UNL1        0.0111
     28 C         143.3826  142.5409  166.8203 C.ar    1  UNL1       -0.0018
     29 C         142.9998  142.8961  170.0941 C.3     1  UNL1        0.4142
     30 F         143.6352  143.8564  171.0555 F       1  UNL1       -0.1682
     31 F         144.2806  142.1185  170.0245 F       1  UNL1       -0.1682
     32 F         141.7190  143.6737  170.1637 F       1  UNL1       -0.1682
@<TRIPOS>BOND
     1     7     8    1
     2     8     9   ar
     3     9    10   ar
     4    10    11   ar
     5    11    12   ar
     6    12    13   ar
     7     1    13    1
     8     1     2    1
     9     3     2    1
    10     3     4    1
    11     4    18    1
    12    18    19    1
    13    19    21    1
    14    21    22    1
    15    22    23   ar
    16    23    24   ar
    17    24    25   ar
    18    25    26    1
    19    25    27   ar
    20    27    28   ar
    21    21    29    1
    22    29    30    1
    23    29    31    1
    24    29    32    1
    25     4     5    1
    26     5     6    1
    27    13    14   ar
    28    14    15   ar
    29    15    16   ar
    30    16    17    1
    31    16     8   ar
    32    14    10   ar
    33     6     1    1
    34     5     3    1
    35    28    22   ar
    36    19    20    1
@<TRIPOS>MOLECULE
*****
 32 36 0 0 0
SMALL
GASTEIGER

@<TRIPOS>ATOM
      1 C         143.1542  139.0810  163.7363 C.3     1  UNL1        0.0870
      2 C         144.2456  139.1943  164.7590 C.3     1  UNL1        0.0226
      3 C         143.6090  139.2043  166.1172 C.3     1  UNL1        0.0033
      4 C         142.7046  139.1899  167.3138 C.3     1  UNL1        0.0159
      5 C         142.1241  139.0971  165.9339 C.3     1  UNL1        0.0033
      6 C         141.8430  139.0209  164.4624 C.3     1  UNL1        0.0226
      7 F         143.2508  143.0823  157.8530 F       1  UNL1       -0.2017
      8 C         143.2585  142.1242  159.0072 C.ar    1  UNL1        0.1690
      9 C         143.5116  140.6649  158.7690 C.ar    1  UNL1        0.0526
     10 C         143.5193  139.7069  159.9231 C.ar    1  UNL1        0.1011
     11 N         143.7383  138.2248  159.9958 N.ar    1  UNL1       -0.2239
     12 C         143.6282  137.8099  161.4331 C.ar    1  UNL1        0.1785
     13 N         143.3411  139.0357  162.2487 N.ar    1  UNL1       -0.3109
     14 C         143.2738  140.2081  161.3155 C.ar    1  UNL1        0.0813
     15 C         143.0207  141.6673  161.5536 C.ar    1  UNL1        0.0507
     16 C         143.0131  142.6253  160.3995 C.ar    1  UNL1        0.1689
     17 F         142.7599  144.0845  160.6377 F       1  UNL1       -0.2017
     18 C         142.5177  139.2353  168.8014 C.3     1  UNL1        0.0689
     19 N         141.8651  140.4257  169.4394 N.3     1  UNL1       -0.2882
     20 H         142.0492  140.3611  170.4405 H       1  UNL1        0.1237
     21 C         142.2543  141.8110  169.0160 C.3     1  UNL1        0.1731
     22 C         141.9407  142.2872  167.6285 C.ar    1  UNL1        0.0003
     23 C         140.5139  142.4607  167.1998 C.ar    1  UNL1       -0.0018
     24 C         140.2002  142.9369  165.8124 C.ar    1  UNL1        0.0111
     25 C         141.3134  143.2396  164.8538 C.ar    1  UNL1        0.0577
     26 CL        140.9998  143.7158  163.4664 Cl      1  UNL1       -0.0822
     27 C         142.7404  143.0661  165.2825 C.ar    1  UNL1        0.0111
     28 C         143.0540  142.5899  166.6699 C.ar    1  UNL1       -0.0018
     29 C         142.9571  142.7202  169.9800 C.3     1  UNL1        0.4142
     30 F         143.6598  143.6296  170.9440 F       1  UNL1       -0.1682
     31 F         144.1434  141.8024  169.9810 F       1  UNL1       -0.1682
     32 F         141.7707  143.6381  169.9790 F       1  UNL1       -0.1682
@<TRIPOS>BOND
     1     7     8    1
     2     8     9   ar
     3     9    10   ar
     4    10    11   ar
     5    11    12   ar
     6    12    13   ar
     7     1    13    1
     8     1     2    1
     9     3     2    1
    10     3     4    1
    11     4    18    1
    12    18    19    1
    13    19    21    1
    14    21    22    1
    15    22    23   ar
    16    23    24   ar
    17    24    25   ar
    18    25    26    1
    19    25    27   ar
    20    27    28   ar
    21    21    29    1
    22    29    30    1
    23    29    31    1
    24    29    32    1
    25     4     5    1
    26     5     6    1
    27    13    14   ar
    28    14    15   ar
    29    15    16   ar
    30    16    17    1
    31    16     8   ar
    32    14    10   ar
    33     6     1    1
    34     5     3    1
    35    28    22   ar
    36    19    20    1
@<TRIPOS>MOLECULE
*****
 32 36 0 0 0
SMALL
GASTEIGER

@<TRIPOS>ATOM
      1 C         139.4648  141.7018  163.3941 C.3     1  UNL1        0.0870
      2 C         139.9501  140.3453  163.8119 C.3     1  UNL1        0.0226
      3 C         139.7925  140.2346  165.2995 C.3     1  UNL1        0.0033
      4 C         139.5216  140.4153  166.7637 C.3     1  UNL1        0.0159
      5 C         139.2099  141.5226  165.8011 C.3     1  UNL1        0.0033
      6 C         139.0074  142.4293  164.6235 C.3     1  UNL1        0.0226
      7 F         143.5978  143.8507  158.0151 F       1  UNL1       -0.2017
      8 C         142.6120  143.4278  159.0637 C.ar    1  UNL1        0.1690
      9 C         141.1403  143.5019  158.7829 C.ar    1  UNL1        0.0526
     10 C         140.1545  143.0790  159.8314 C.ar    1  UNL1        0.1011
     11 N         138.6551  143.0411  159.8422 N.ar    1  UNL1       -0.2239
     12 C         138.2142  142.5205  161.1781 C.ar    1  UNL1        0.1785
     13 N         139.4412  142.2368  161.9930 N.ar    1  UNL1       -0.3109
     14 C         140.6404  142.5819  161.1606 C.ar    1  UNL1        0.0813
     15 C         142.1121  142.5078  161.4413 C.ar    1  UNL1        0.0507
     16 C         143.0978  142.9307  160.3928 C.ar    1  UNL1        0.1689
     17 F         144.5695  142.8566  160.6736 F       1  UNL1       -0.2017
     18 C         139.5452  139.8803  168.1649 C.3     1  UNL1        0.0689
     19 N         140.5411  140.4105  169.1534 N.3     1  UNL1       -0.2882
     20 H         140.2863  140.0259  170.0631 H       1  UNL1        0.1237
     21 C         142.0040  140.1394  168.9631 C.3     1  UNL1        0.1731
     22 C         142.6127  140.2340  167.5954 C.ar    1  UNL1        0.0003
     23 C         142.8401  141.5768  166.9670 C.ar    1  UNL1       -0.0018
     24 C         143.4488  141.6715  165.5993 C.ar    1  UNL1        0.0111
     25 C         143.8301  140.4233  164.8600 C.ar    1  UNL1        0.0577
     26 CL        144.4387  140.5180  163.4924 Cl      1  UNL1       -0.0822
     27 C         143.6026  139.0804  165.4885 C.ar    1  UNL1        0.0111
     28 C         142.9940  138.9857  166.8561 C.ar    1  UNL1       -0.0018
     29 C         142.8584  139.7736  170.1405 C.3     1  UNL1        0.4142
     30 F         143.7127  139.4077  171.3179 F       1  UNL1       -0.1682
     31 F         143.4906  141.1333  170.1042 F       1  UNL1       -0.1682
     32 F         142.2261  138.4138  170.1767 F       1  UNL1       -0.1682
@<TRIPOS>BOND
     1     7     8    1
     2     8     9   ar
     3     9    10   ar
     4    10    11   ar
     5    11    12   ar
     6    12    13   ar
     7     1    13    1
     8     1     2    1
     9     3     2    1
    10     3     4    1
    11     4    18    1
    12    18    19    1
    13    19    21    1
    14    21    22    1
    15    22    23   ar
    16    23    24   ar
    17    24    25   ar
    18    25    26    1
    19    25    27   ar
    20    27    28   ar
    21    21    29    1
    22    29    30    1
    23    29    31    1
    24    29    32    1
    25     4     5    1
    26     5     6    1
    27    13    14   ar
    28    14    15   ar
    29    15    16   ar
    30    16    17    1
    31    16     8   ar
    32    14    10   ar
    33     6     1    1
    34     5     3    1
    35    28    22   ar
    36    19    20    1
@<TRIPOS>MOLECULE
*****
 32 36 0 0 0
SMALL
GASTEIGER

@<TRIPOS>ATOM
      1 C         139.5270  139.6462  167.0718 C.3     1  UNL1        0.0870
      2 C         138.2113  139.3942  166.3970 C.3     1  UNL1        0.0226
      3 C         138.4888  138.8074  165.0447 C.3     1  UNL1        0.0033
      4 C         139.0666  138.2489  163.7781 C.3     1  UNL1        0.0159
      5 C         139.9760  138.6968  164.8837 C.3     1  UNL1        0.0033
      6 C         140.6177  139.2152  166.1365 C.3     1  UNL1        0.0226
      7 F         143.8495  143.6867  171.0244 F       1  UNL1       -0.2017
      8 C         142.8539  142.8219  170.3096 C.ar    1  UNL1        0.1690
      9 C         141.6464  142.3097  171.0373 C.ar    1  UNL1        0.0526
     10 C         140.6508  141.4449  170.3225 C.ar    1  UNL1        0.1011
     11 N         139.3756  140.7977  170.7754 N.ar    1  UNL1       -0.2239
     12 C         138.7995  140.0452  169.6127 C.ar    1  UNL1        0.1785
     13 N         139.7186  140.2272  168.4413 N.ar    1  UNL1       -0.3109
     14 C         140.8628  141.0923  168.8800 C.ar    1  UNL1        0.0813
     15 C         142.0703  141.6045  168.1523 C.ar    1  UNL1        0.0507
     16 C         143.0658  142.4693  168.8672 C.ar    1  UNL1        0.1689
     17 F         144.2734  142.9815  168.1394 F       1  UNL1       -0.2017
     18 C         138.8750  137.6679  162.4085 C.3     1  UNL1        0.0689
     19 N         138.0667  138.4096  161.3856 N.3     1  UNL1       -0.2882
     20 H         137.1404  138.5512  161.7884 H       1  UNL1        0.1237
     21 C         138.5313  139.7461  160.8877 C.3     1  UNL1        0.1731
     22 C         138.6532  140.8998  161.8387 C.ar    1  UNL1        0.0003
     23 C         139.9858  141.5519  162.0596 C.ar    1  UNL1       -0.0018
     24 C         140.1078  142.7055  163.0105 C.ar    1  UNL1        0.0111
     25 C         138.8972  143.2070  163.7405 C.ar    1  UNL1        0.0577
     26 CL        139.0192  144.3606  164.6914 Cl      1  UNL1       -0.0822
     27 C         137.5646  142.5548  163.5196 C.ar    1  UNL1        0.0111
     28 C         137.4426  141.4012  162.5687 C.ar    1  UNL1       -0.0018
     29 C         138.8739  139.9291  159.4389 C.3     1  UNL1        0.4142
     30 F         139.2165  140.1121  157.9900 F       1  UNL1       -0.1682
     31 F         140.1777  139.2205  159.6576 F       1  UNL1       -0.1682
     32 F         137.5700  140.6376  159.2201 F       1  UNL1       -0.1682
@<TRIPOS>BOND
     1     7     8    1
     2     8     9   ar
     3     9    10   ar
     4    10    11   ar
     5    11    12   ar
     6    12    13   ar
     7     1    13    1
     8     1     2    1
     9     3     2    1
    10     3     4    1
    11     4    18    1
    12    18    19    1
    13    19    21    1
    14    21    22    1
    15    22    23   ar
    16    23    24   ar
    17    24    25   ar
    18    25    26    1
    19    25    27   ar
    20    27    28   ar
    21    21    29    1
    22    29    30    1
    23    29    31    1
    24    29    32    1
    25     4     5    1
    26     5     6    1
    27    13    14   ar
    28    14    15   ar
    29    15    16   ar
    30    16    17    1
    31    16     8   ar
    32    14    10   ar
    33     6     1    1
    34     5     3    1
    35    28    22   ar
    36    19    20    1
@<TRIPOS>MOLECULE
*****
 32 36 0 0 0
SMALL
GASTEIGER

@<TRIPOS>ATOM
      1 C         141.0254  139.2208  165.4757 C.3     1  UNL1        0.0870
      2 C         142.2986  138.4493  165.2914 C.3     1  UNL1        0.0226
      3 C         142.5813  138.3660  163.8207 C.3     1  UNL1        0.0033
      4 C         142.5986  138.4474  162.3230 C.3     1  UNL1        0.0159
      5 C         141.4829  139.0859  163.0959 C.3     1  UNL1        0.0033
      6 C         140.5213  139.6141  164.1188 C.3     1  UNL1        0.0226
      7 F         142.0893  142.2953  171.8041 F       1  UNL1       -0.2017
      8 C         141.7294  141.6175  170.5152 C.ar    1  UNL1        0.1690
      9 C         140.3564  141.0429  170.3279 C.ar    1  UNL1        0.0526
     10 C         139.9966  140.3651  169.0390 C.ar    1  UNL1        0.1011
     11 N         138.7321  139.7093  168.5689 N.ar    1  UNL1       -0.2239
     12 C         138.9636  139.2008  167.1768 C.ar    1  UNL1        0.1785
     13 N         140.3712  139.5424  166.7866 N.ar    1  UNL1       -0.3109
     14 C         141.0096  140.2619  167.9376 C.ar    1  UNL1        0.0813
     15 C         142.3824  140.8365  168.1249 C.ar    1  UNL1        0.0507
     16 C         142.7423  141.5143  169.4138 C.ar    1  UNL1        0.1689
     17 F         144.1152  142.0889  169.6011 F       1  UNL1       -0.2017
     18 C         143.2529  138.1259  161.0120 C.3     1  UNL1        0.0689
     19 N         144.1776  139.1184  160.3719 N.3     1  UNL1       -0.2882
     20 H         144.2247  138.8805  159.3812 H       1  UNL1        0.1237
     21 C         143.8745  140.5852  160.4511 C.3     1  UNL1        0.1731
     22 C         144.0181  141.3115  161.7557 C.ar    1  UNL1        0.0003
     23 C         145.1908  141.0278  162.6469 C.ar    1  UNL1       -0.0018
     24 C         145.3344  141.7540  163.9514 C.ar    1  UNL1        0.0111
     25 C         144.3054  142.7640  164.3648 C.ar    1  UNL1        0.0577
     26 CL        144.4490  143.4902  165.6694 Cl      1  UNL1       -0.0822
     27 C         143.1327  143.0478  163.4736 C.ar    1  UNL1        0.0111
     28 C         142.9890  142.3216  162.1691 C.ar    1  UNL1       -0.0018
     29 C         143.4278  141.3260  159.2256 C.3     1  UNL1        0.4142
     30 F         142.9810  142.0668  158.0002 F       1  UNL1       -0.1682
     31 F         144.7345  142.0617  159.1939 F       1  UNL1       -0.1682
     32 F         142.1210  140.5903  159.2574 F       1  UNL1       -0.1682
@<TRIPOS>BOND
     1     7     8    1
     2     8     9   ar
     3     9    10   ar
     4    10    11   ar
     5    11    12   ar
     6    12    13   ar
     7     1    13    1
     8     1     2    1
     9     3     2    1
    10     3     4    1
    11     4    18    1
    12    18    19    1
    13    19    21    1
    14    21    22    1
    15    22    23   ar
    16    23    24   ar
    17    24    25   ar
    18    25    26    1
    19    25    27   ar
    20    27    28   ar
    21    21    29    1
    22    29    30    1
    23    29    31    1
    24    29    32    1
    25     4     5    1
    26     5     6    1
    27    13    14   ar
    28    14    15   ar
    29    15    16   ar
    30    16    17    1
    31    16     8   ar
    32    14    10   ar
    33     6     1    1
    34     5     3    1
    35    28    22   ar
    36    19    20    1
