@<TRIPOS>MOLECULE
*****
 42 46 0 0 0
SMALL
GASTEIGER

@<TRIPOS>ATOM
      1 C         141.1494  140.3802  159.0215 C.3     1  UNL1        0.0621
      2 C         140.3310  140.8704  160.1791 C.3     1  UNL1        0.0998
      3 N         141.1557  142.1222  160.2320 N.am    1  UNL1       -0.2741
      4 C         141.1602  143.3540  161.0879 C.2     1  UNL1        0.2669
      5 O         142.1685  144.4363  160.8395 O.2     1  UNL1       -0.2683
      6 C         141.9741  141.6321  159.0745 C.3     1  UNL1        0.0998
      7 C         141.1361  136.6848  156.4536 C.ar    1  UNL1        0.1727
      8 C         142.4032  137.1286  157.1227 C.ar    1  UNL1        0.0397
      9 C         142.4076  138.3604  157.9787 C.ar    1  UNL1       -0.0009
     10 C         141.1450  139.1484  158.1655 C.ar    1  UNL1       -0.0160
     11 C         139.8780  138.7047  157.4964 C.ar    1  UNL1        0.0359
     12 C         139.8736  137.4729  156.6404 C.ar    1  UNL1        0.1721
     13 O         138.6066  137.0291  155.9713 O.3     1  UNL1       -0.4684
     14 C         138.1858  137.6524  154.6733 C.3     1  UNL1        0.2526
     15 O         141.1317  135.4531  155.5976 O.3     1  UNL1       -0.4676
     16 C         142.4283  134.8220  155.1847 C.3     1  UNL1        0.2321
     17 C         144.0366  131.2890  157.4610 C.ar    1  UNL1       -0.0222
     18 C         142.8783  131.1135  156.5243 C.ar    1  UNL1       -0.0045
     19 C         142.3421  132.2912  155.7655 C.ar    1  UNL1       -0.0010
     20 C         142.9644  133.6443  155.9434 C.ar    1  UNL1        0.0211
     21 C         144.1227  133.8199  156.8801 C.ar    1  UNL1       -0.0010
     22 C         144.6588  132.6422  157.6389 C.ar    1  UNL1       -0.0045
     23 C         143.6350  129.0569  158.7283 C.3     1  UNL1        0.0050
     24 C         144.5727  130.1114  158.2197 C.3     1  UNL1        0.0264
     25 C         140.1562  143.5035  162.1924 C.ar    1  UNL1        0.1377
     26 C         140.5266  143.1331  163.5979 C.ar    1  UNL1        0.0606
     27 C         139.5226  143.2826  164.7023 C.ar    1  UNL1        0.1418
     28 C         138.1482  143.8024  164.4011 C.ar    1  UNL1        0.0576
     29 C         137.7777  144.1728  162.9955 C.ar    1  UNL1        0.1021
     30 N         138.7817  144.0233  161.8912 N.ar    1  UNL1       -0.2390
     31 O         139.8930  142.9122  166.1079 O.3     1  UNL1       -0.4739
     32 C         140.4427  141.5483  166.4040 C.3     1  UNL1        0.2227
     33 C         139.5394  140.3514  166.3672 C.3     1  UNL1        0.1202
     34 N         139.6053  139.3973  165.2116 N.3     1  UNL1       -0.2653
     35 C         140.7599  138.5017  164.8724 C.3     1  UNL1        0.1044
     36 C         140.3963  137.7223  163.6436 C.3     1  UNL1        0.1544
     37 O         141.2603  136.7071  162.9557 O.3     1  UNL1       -0.3805
     38 C         139.0171  138.1360  163.2233 C.3     1  UNL1        0.1544
     39 O         138.2599  137.6072  162.0413 O.3     1  UNL1       -0.3805
     40 C         138.5283  139.1712  164.1924 C.3     1  UNL1        0.1044
     41 H         142.1032  136.6261  163.4288 H       1  UNL1        0.2105
     42 H         138.8006  136.9473  161.5798 H       1  UNL1        0.2105
@<TRIPOS>BOND
     1    23    24    1
     2    24    17    1
     3    17    18   ar
     4    18    19   ar
     5    19    20   ar
     6    20    16    1
     7    16    15    1
     8    15     7    1
     9     7     8   ar
    10     8     9   ar
    11     9    10   ar
    12    10     1    1
    13     1     2    1
    14     2     3    1
    15     3     4   am
    16     4     5    2
    17     4    25    1
    18    25    26   ar
    19    26    27   ar
    20    27    31    1
    21    31    32    1
    22    32    33    1
    23    33    34    1
    24    34    35    1
    25    35    36    1
    26    36    37    1
    27    36    38    1
    28    38    39    1
    29    38    40    1
    30    27    28   ar
    31    28    29   ar
    32    29    30   ar
    33     3     6    1
    34    10    11   ar
    35    11    12   ar
    36    12    13    1
    37    13    14    1
    38    20    21   ar
    39    21    22   ar
    40    22    17   ar
    41    12     7   ar
    42     6     1    1
    43    30    25   ar
    44    40    34    1
    45    37    41    1
    46    39    42    1
@<TRIPOS>MOLECULE
*****
 42 46 0 0 0
SMALL
GASTEIGER

@<TRIPOS>ATOM
      1 C         141.2362  140.3553  158.9262 C.3     1  UNL1        0.0621
      2 C         140.4422  140.8616  160.0938 C.3     1  UNL1        0.0998
      3 N         141.2413  142.1310  160.0867 N.am    1  UNL1       -0.2741
      4 C         141.2448  143.3867  160.9073 C.2     1  UNL1        0.2669
      5 O         142.2221  144.4818  160.5983 O.2     1  UNL1       -0.2683
      6 C         142.0353  141.6247  158.9192 C.3     1  UNL1        0.0998
      7 C         141.2256  136.5883  156.4645 C.ar    1  UNL1        0.1727
      8 C         142.4910  137.0487  157.1256 C.ar    1  UNL1        0.0397
      9 C         142.4946  138.3044  157.9461 C.ar    1  UNL1       -0.0009
     10 C         141.2327  139.0996  158.1057 C.ar    1  UNL1       -0.0160
     11 C         139.9674  138.6392  157.4447 C.ar    1  UNL1        0.0359
     12 C         139.9639  137.3836  156.6241 C.ar    1  UNL1        0.1721
     13 O         138.6986  136.9232  155.9631 O.3     1  UNL1       -0.4684
     14 C         138.3011  137.4854  154.6304 C.3     1  UNL1        0.2526
     15 O         141.2221  135.3327  155.6440 O.3     1  UNL1       -0.4676
     16 C         142.5193  134.7081  155.2231 C.3     1  UNL1        0.2321
     17 C         144.0703  131.0743  157.3771 C.ar    1  UNL1       -0.0222
     18 C         142.9862  130.9317  156.3504 C.ar    1  UNL1       -0.0045
     19 C         142.4691  132.1430  155.6324 C.ar    1  UNL1       -0.0010
     20 C         143.0363  133.4968  155.9411 C.ar    1  UNL1        0.0211
     21 C         144.1205  133.6394  156.9678 C.ar    1  UNL1       -0.0010
     22 C         144.6375  132.4282  157.6858 C.ar    1  UNL1       -0.0045
     23 C         143.6761  129.0750  158.9886 C.3     1  UNL1        0.0050
     24 C         144.5874  129.8631  158.0951 C.3     1  UNL1        0.0264
     25 C         140.2710  143.5472  162.0369 C.ar    1  UNL1        0.1377
     26 C         140.5523  142.9109  163.3658 C.ar    1  UNL1        0.0606
     27 C         139.5784  143.0714  164.4954 C.ar    1  UNL1        0.1418
     28 C         138.3233  143.8682  164.2960 C.ar    1  UNL1        0.0576
     29 C         138.0420  144.5044  162.9670 C.ar    1  UNL1        0.1021
     30 N         139.0158  144.3439  161.8375 N.ar    1  UNL1       -0.2390
     31 O         139.8598  142.4351  165.8243 O.3     1  UNL1       -0.4739
     32 C         141.2130  141.8522  166.1052 C.3     1  UNL1        0.2227
     33 C         141.9763  142.2812  167.3231 C.3     1  UNL1        0.1202
     34 N         141.3327  142.2081  168.6760 N.3     1  UNL1       -0.2653
     35 C         140.2969  143.1517  169.2118 C.3     1  UNL1        0.1044
     36 C         139.9360  142.7052  170.5976 C.3     1  UNL1        0.1544
     37 O         138.9376  143.3628  171.5037 O.3     1  UNL1       -0.3805
     38 C         140.7486  141.4858  170.9182 C.3     1  UNL1        0.1544
     39 O         140.7054  140.7100  172.2013 O.3     1  UNL1       -0.3805
     40 C         141.6118  141.1786  169.7307 C.3     1  UNL1        0.1044
     41 H         138.5523  144.1322  171.0560 H       1  UNL1        0.2105
     42 H         140.0647  141.1180  172.8045 H       1  UNL1        0.2105
@<TRIPOS>BOND
     1    23    24    1
     2    24    17    1
     3    17    18   ar
     4    18    19   ar
     5    19    20   ar
     6    20    16    1
     7    16    15    1
     8    15     7    1
     9     7     8   ar
    10     8     9   ar
    11     9    10   ar
    12    10     1    1
    13     1     2    1
    14     2     3    1
    15     3     4   am
    16     4     5    2
    17     4    25    1
    18    25    26   ar
    19    26    27   ar
    20    27    31    1
    21    31    32    1
    22    32    33    1
    23    33    34    1
    24    34    35    1
    25    35    36    1
    26    36    37    1
    27    36    38    1
    28    38    39    1
    29    38    40    1
    30    27    28   ar
    31    28    29   ar
    32    29    30   ar
    33     3     6    1
    34    10    11   ar
    35    11    12   ar
    36    12    13    1
    37    13    14    1
    38    20    21   ar
    39    21    22   ar
    40    22    17   ar
    41    12     7   ar
    42     6     1    1
    43    30    25   ar
    44    40    34    1
    45    37    41    1
    46    39    42    1
@<TRIPOS>MOLECULE
*****
 42 46 0 0 0
SMALL
GASTEIGER

@<TRIPOS>ATOM
      1 C         141.2051  140.3598  158.9109 C.3     1  UNL1        0.0621
      2 C         140.3924  140.8618  160.0675 C.3     1  UNL1        0.0998
      3 N         141.2169  142.1143  160.1031 N.am    1  UNL1       -0.2741
      4 C         141.2252  143.3550  160.9461 C.2     1  UNL1        0.2669
      5 O         142.2318  144.4350  160.6812 O.2     1  UNL1       -0.2683
      6 C         142.0295  141.6124  158.9466 C.3     1  UNL1        0.0998
      7 C         141.1802  136.6377  156.3820 C.ar    1  UNL1        0.1727
      8 C         142.4541  137.0980  157.0266 C.ar    1  UNL1        0.0397
      9 C         142.4624  138.3386  157.8696 C.ar    1  UNL1       -0.0009
     10 C         141.1968  139.1191  158.0680 C.ar    1  UNL1       -0.0160
     11 C         139.9230  138.6588  157.4234 C.ar    1  UNL1        0.0359
     12 C         139.9147  137.4181  156.5804 C.ar    1  UNL1        0.1721
     13 O         138.6409  136.9579  155.9358 O.3     1  UNL1       -0.4684
     14 C         138.1944  137.5655  154.6390 C.3     1  UNL1        0.2526
     15 O         141.1719  135.3970  155.5390 O.3     1  UNL1       -0.4676
     16 C         142.4662  134.7491  155.1453 C.3     1  UNL1        0.2321
     17 C         144.0105  131.2157  157.4647 C.ar    1  UNL1       -0.0222
     18 C         144.6663  132.5563  157.6153 C.ar    1  UNL1       -0.0045
     19 C         144.1515  133.7341  156.8422 C.ar    1  UNL1       -0.0010
     20 C         142.9810  133.5713  155.9184 C.ar    1  UNL1        0.0211
     21 C         142.3253  132.2307  155.7678 C.ar    1  UNL1       -0.0010
     22 C         142.8401  131.0529  156.5409 C.ar    1  UNL1       -0.0045
     23 C         143.5660  129.0243  158.7876 C.3     1  UNL1        0.0050
     24 C         144.5253  130.0378  158.2378 C.3     1  UNL1        0.0264
     25 C         140.2268  143.5157  162.0540 C.ar    1  UNL1        0.1377
     26 C         140.6453  143.2990  163.4780 C.ar    1  UNL1        0.0606
     27 C         139.6469  143.4596  164.5860 C.ar    1  UNL1        0.1418
     28 C         138.2300  143.8369  164.2698 C.ar    1  UNL1        0.0576
     29 C         137.8115  144.0537  162.8458 C.ar    1  UNL1        0.1021
     30 N         138.8099  143.8930  161.7379 N.ar    1  UNL1       -0.2390
     31 O         140.0655  143.2429  166.0100 O.3     1  UNL1       -0.4739
     32 C         141.0496  142.1620  166.3463 C.3     1  UNL1        0.2227
     33 C         142.5140  142.4778  166.4211 C.3     1  UNL1        0.1202
     34 N         143.4632  141.8737  165.4290 N.3     1  UNL1       -0.2653
     35 C         144.5848  142.5875  164.7343 C.3     1  UNL1        0.1044
     36 C         145.2721  141.6047  163.8335 C.3     1  UNL1        0.1544
     37 O         146.4496  141.8925  162.9498 O.3     1  UNL1       -0.3805
     38 C         144.5754  140.2835  163.9713 C.3     1  UNL1        0.1544
     39 O         144.9338  139.0183  163.2497 O.3     1  UNL1       -0.3805
     40 C         143.4574  140.4497  164.9574 C.3     1  UNL1        0.1044
     41 H         146.7070  142.8227  163.0468 H       1  UNL1        0.2105
     42 H         145.6948  139.1808  162.6707 H       1  UNL1        0.2105
@<TRIPOS>BOND
     1    23    24    1
     2    24    17    1
     3    17    18   ar
     4    18    19   ar
     5    19    20   ar
     6    20    16    1
     7    16    15    1
     8    15     7    1
     9     7     8   ar
    10     8     9   ar
    11     9    10   ar
    12    10     1    1
    13     1     2    1
    14     2     3    1
    15     3     4   am
    16     4     5    2
    17     4    25    1
    18    25    26   ar
    19    26    27   ar
    20    27    31    1
    21    31    32    1
    22    32    33    1
    23    33    34    1
    24    34    35    1
    25    35    36    1
    26    36    37    1
    27    36    38    1
    28    38    39    1
    29    38    40    1
    30    27    28   ar
    31    28    29   ar
    32    29    30   ar
    33     3     6    1
    34    10    11   ar
    35    11    12   ar
    36    12    13    1
    37    13    14    1
    38    20    21   ar
    39    21    22   ar
    40    22    17   ar
    41    12     7   ar
    42     6     1    1
    43    30    25   ar
    44    40    34    1
    45    37    41    1
    46    39    42    1
@<TRIPOS>MOLECULE
*****
 42 46 0 0 0
SMALL
GASTEIGER

@<TRIPOS>ATOM
      1 C         140.8455  140.4444  158.8189 C.3     1  UNL1        0.0621
      2 C         141.6068  140.9637  160.0025 C.3     1  UNL1        0.0998
      3 N         140.7754  142.2121  159.9896 N.am    1  UNL1       -0.2741
      4 C         140.7258  143.4620  160.8174 C.2     1  UNL1        0.2669
      5 O         139.7257  144.5335  160.4987 O.2     1  UNL1       -0.2683
      6 C         140.0141  141.6929  158.8061 C.3     1  UNL1        0.0998
      7 C         140.9942  136.6947  156.3355 C.ar    1  UNL1        0.1727
      8 C         142.2319  137.1870  157.0254 C.ar    1  UNL1        0.0397
      9 C         142.1823  138.4369  157.8532 C.ar    1  UNL1       -0.0009
     10 C         140.8950  139.1945  157.9911 C.ar    1  UNL1       -0.0160
     11 C         139.6574  138.7023  157.3013 C.ar    1  UNL1        0.0359
     12 C         139.7070  137.4524  156.4735 C.ar    1  UNL1        0.1721
     13 O         138.4694  136.9601  155.7836 O.3     1  UNL1       -0.4684
     14 C         138.0522  137.5596  154.4734 C.3     1  UNL1        0.2526
     15 O         141.0438  135.4448  155.5077 O.3     1  UNL1       -0.4676
     16 C         142.3668  134.8498  155.1263 C.3     1  UNL1        0.2321
     17 C         143.9888  131.3243  157.4044 C.ar    1  UNL1       -0.0222
     18 C         142.8551  131.1370  156.4404 C.ar    1  UNL1       -0.0045
     19 C         142.3144  132.3122  155.6810 C.ar    1  UNL1       -0.0010
     20 C         142.9075  133.6746  155.8857 C.ar    1  UNL1        0.0211
     21 C         144.0412  133.8619  156.8498 C.ar    1  UNL1       -0.0010
     22 C         144.5819  132.6867  157.6091 C.ar    1  UNL1       -0.0045
     23 C         144.5964  128.8005  157.5106 C.3     1  UNL1        0.0050
     24 C         144.5295  130.1491  158.1638 C.3     1  UNL1        0.0264
     25 C         141.6764  143.6403  161.9640 C.ar    1  UNL1        0.1377
     26 C         141.3924  142.9843  163.2827 C.ar    1  UNL1        0.0606
     27 C         142.3430  143.1627  164.4293 C.ar    1  UNL1        0.1418
     28 C         143.5776  143.9971  164.2571 C.ar    1  UNL1        0.0576
     29 C         143.8615  144.6532  162.9384 C.ar    1  UNL1        0.1021
     30 N         142.9109  144.4748  161.7919 N.ar    1  UNL1       -0.2390
     31 O         142.0591  142.5067  165.7480 O.3     1  UNL1       -0.4739
     32 C         143.0647  141.5724  166.3529 C.3     1  UNL1        0.2227
     33 C         142.8978  140.0896  166.2000 C.3     1  UNL1        0.1202
     34 N         142.9857  139.4611  164.8409 N.3     1  UNL1       -0.2653
     35 C         142.0220  138.4657  164.2658 C.3     1  UNL1        0.1044
     36 C         142.4936  138.1071  162.8877 C.3     1  UNL1        0.1544
     37 O         141.8270  137.1439  161.9507 O.3     1  UNL1       -0.3805
     38 C         143.7485  138.8808  162.6112 C.3     1  UNL1        0.1544
     39 O         144.5573  138.8270  161.3490 O.3     1  UNL1       -0.3805
     40 C         144.0527  139.7176  163.8183 C.3     1  UNL1        0.1044
     41 H         141.0329  136.7799  162.3722 H       1  UNL1        0.2105
     42 H         144.1441  138.2086  160.7263 H       1  UNL1        0.2105
@<TRIPOS>BOND
     1    23    24    1
     2    24    17    1
     3    17    18   ar
     4    18    19   ar
     5    19    20   ar
     6    20    16    1
     7    16    15    1
     8    15     7    1
     9     7     8   ar
    10     8     9   ar
    11     9    10   ar
    12    10     1    1
    13     1     2    1
    14     2     3    1
    15     3     4   am
    16     4     5    2
    17     4    25    1
    18    25    26   ar
    19    26    27   ar
    20    27    31    1
    21    31    32    1
    22    32    33    1
    23    33    34    1
    24    34    35    1
    25    35    36    1
    26    36    37    1
    27    36    38    1
    28    38    39    1
    29    38    40    1
    30    27    28   ar
    31    28    29   ar
    32    29    30   ar
    33     3     6    1
    34    10    11   ar
    35    11    12   ar
    36    12    13    1
    37    13    14    1
    38    20    21   ar
    39    21    22   ar
    40    22    17   ar
    41    12     7   ar
    42     6     1    1
    43    30    25   ar
    44    40    34    1
    45    37    41    1
    46    39    42    1
@<TRIPOS>MOLECULE
*****
 42 46 0 0 0
SMALL
GASTEIGER

@<TRIPOS>ATOM
      1 C         139.8285  139.2691  160.6741 C.3     1  UNL1        0.0621
      2 C         139.9003  139.1576  162.1683 C.3     1  UNL1        0.0998
      3 N         138.7689  140.1342  162.2955 N.am    1  UNL1       -0.2741
      4 C         138.0196  140.7459  163.4419 C.2     1  UNL1        0.2669
      5 O         136.9082  141.7180  163.1781 O.2     1  UNL1       -0.2683
      6 C         138.6971  140.2456  160.8014 C.3     1  UNL1        0.0998
      7 C         142.0764  137.4339  157.2347 C.ar    1  UNL1        0.1727
      8 C         142.7833  137.7167  158.5272 C.ar    1  UNL1        0.0397
      9 C         142.0341  138.3284  159.6736 C.ar    1  UNL1       -0.0009
     10 C         140.5778  138.6573  159.5277 C.ar    1  UNL1       -0.0160
     11 C         139.8709  138.3745  158.2353 C.ar    1  UNL1        0.0359
     12 C         140.6202  137.7628  157.0888 C.ar    1  UNL1        0.1721
     13 O         139.9133  137.4800  155.7965 O.3     1  UNL1       -0.4684
     14 C         138.7964  138.3721  155.3416 C.3     1  UNL1        0.2526
     15 O         142.8256  136.8222  156.0883 O.3     1  UNL1       -0.4676
     16 C         143.6369  135.5785  156.3007 C.3     1  UNL1        0.2321
     17 C         141.8295  131.5430  155.4653 C.ar    1  UNL1       -0.0222
     18 C         141.3188  132.7568  154.7470 C.ar    1  UNL1       -0.0045
     19 C         141.9213  134.1019  155.0255 C.ar    1  UNL1       -0.0010
     20 C         143.0344  134.2334  156.0223 C.ar    1  UNL1        0.0211
     21 C         143.5451  133.0196  156.7405 C.ar    1  UNL1       -0.0010
     22 C         142.9427  131.6745  156.4620 C.ar    1  UNL1       -0.0045
     23 C         139.7878  130.0907  154.7783 C.3     1  UNL1        0.0050
     24 C         141.2271  130.1979  155.1868 C.3     1  UNL1        0.0264
     25 C         138.3819  140.3855  164.8523 C.ar    1  UNL1        0.1377
     26 C         139.3414  141.2431  165.6227 C.ar    1  UNL1        0.0606
     27 C         139.7037  140.8827  167.0330 C.ar    1  UNL1        0.1418
     28 C         139.1063  139.6646  167.6728 C.ar    1  UNL1        0.0576
     29 C         138.1467  138.8069  166.9023 C.ar    1  UNL1        0.1021
     30 N         137.7845  139.1673  165.4921 N.ar    1  UNL1       -0.2390
     31 O         140.6632  141.7404  167.8035 O.3     1  UNL1       -0.4739
     32 C         142.1385  141.6190  167.5613 C.3     1  UNL1        0.2227
     33 C         142.8057  142.4938  166.5418 C.3     1  UNL1        0.1202
     34 N         143.6761  141.8830  165.4838 N.3     1  UNL1       -0.2653
     35 C         143.5905  140.4737  164.9770 C.3     1  UNL1        0.1044
     36 C         144.6464  140.2940  163.9269 C.3     1  UNL1        0.1544
     37 O         144.9168  139.0368  163.1545 O.3     1  UNL1       -0.3805
     38 C         145.3846  141.5920  163.7847 C.3     1  UNL1        0.1544
     39 O         146.5226  141.8607  162.8452 O.3     1  UNL1       -0.3805
     40 C         144.7849  142.5740  164.7469 C.3     1  UNL1        0.1044
     41 H         144.2990  138.3444  163.4373 H       1  UNL1        0.2105
     42 H         146.7157  141.0595  162.3337 H       1  UNL1        0.2105
@<TRIPOS>BOND
     1    23    24    1
     2    24    17    1
     3    17    18   ar
     4    18    19   ar
     5    19    20   ar
     6    20    16    1
     7    16    15    1
     8    15     7    1
     9     7     8   ar
    10     8     9   ar
    11     9    10   ar
    12    10     1    1
    13     1     2    1
    14     2     3    1
    15     3     4   am
    16     4     5    2
    17     4    25    1
    18    25    26   ar
    19    26    27   ar
    20    27    31    1
    21    31    32    1
    22    32    33    1
    23    33    34    1
    24    34    35    1
    25    35    36    1
    26    36    37    1
    27    36    38    1
    28    38    39    1
    29    38    40    1
    30    27    28   ar
    31    28    29   ar
    32    29    30   ar
    33     3     6    1
    34    10    11   ar
    35    11    12   ar
    36    12    13    1
    37    13    14    1
    38    20    21   ar
    39    21    22   ar
    40    22    17   ar
    41    12     7   ar
    42     6     1    1
    43    30    25   ar
    44    40    34    1
    45    37    41    1
    46    39    42    1
@<TRIPOS>MOLECULE
*****
 42 46 0 0 0
SMALL
GASTEIGER

@<TRIPOS>ATOM
      1 C         140.0252  139.6579  159.5435 C.3     1  UNL1        0.0621
      2 C         140.4344  140.9846  160.1114 C.3     1  UNL1        0.0998
      3 N         139.1497  141.0507  160.8828 N.am    1  UNL1       -0.2741
      4 C         138.5307  142.0355  161.8298 C.2     1  UNL1        0.2669
      5 O         137.1838  141.7560  162.4280 O.2     1  UNL1       -0.2683
      6 C         138.7405  139.7241  160.3150 C.3     1  UNL1        0.0998
      7 C         141.8823  136.7033  156.7025 C.ar    1  UNL1        0.1727
      8 C         142.6784  137.2359  157.8570 C.ar    1  UNL1        0.0397
      9 C         142.0593  138.2207  158.8040 C.ar    1  UNL1       -0.0009
     10 C         140.6442  138.6730  158.5965 C.ar    1  UNL1       -0.0160
     11 C         139.8483  138.1405  157.4421 C.ar    1  UNL1        0.0359
     12 C         140.4673  137.1556  156.4951 C.ar    1  UNL1        0.1721
     13 O         139.6713  136.6231  155.3406 O.3     1  UNL1       -0.4684
     14 C         138.4699  137.3741  154.8481 C.3     1  UNL1        0.2526
     15 O         142.5014  135.7185  155.7555 O.3     1  UNL1       -0.4676
     16 C         143.7708  135.0131  156.1309 C.3     1  UNL1        0.2321
     17 C         143.6636  130.6810  157.3438 C.ar    1  UNL1       -0.0222
     18 C         144.7212  131.5890  157.8978 C.ar    1  UNL1       -0.0045
     19 C         144.7570  133.0330  157.4935 C.ar    1  UNL1       -0.0010
     20 C         143.7351  133.5691  156.5352 C.ar    1  UNL1        0.0211
     21 C         142.6774  132.6611  155.9812 C.ar    1  UNL1       -0.0010
     22 C         142.6417  131.2170  156.3855 C.ar    1  UNL1       -0.0045
     23 C         144.0544  128.8338  159.1285 C.3     1  UNL1        0.0050
     24 C         143.6279  129.2370  157.7481 C.3     1  UNL1        0.0264
     25 C         139.2585  143.2999  162.1786 C.ar    1  UNL1        0.1377
     26 C         140.4691  143.2489  163.0628 C.ar    1  UNL1        0.0606
     27 C         141.1970  144.5133  163.4116 C.ar    1  UNL1        0.1418
     28 C         140.7142  145.8287  162.8762 C.ar    1  UNL1        0.0576
     29 C         139.5035  145.8797  161.9920 C.ar    1  UNL1        0.1021
     30 N         138.7757  144.6153  161.6432 N.ar    1  UNL1       -0.2390
     31 O         142.4076  144.4623  164.2958 O.3     1  UNL1       -0.4739
     32 C         143.7489  144.8598  163.7546 C.3     1  UNL1        0.2227
     33 C         144.3575  144.0909  162.6196 C.3     1  UNL1        0.1202
     34 N         144.5101  142.6020  162.7189 N.3     1  UNL1       -0.2653
     35 C         144.3175  141.6195  161.6018 C.3     1  UNL1        0.1044
     36 C         144.5705  140.2445  162.1453 C.3     1  UNL1        0.1544
     37 O         144.4888  138.9619  161.3716 O.3     1  UNL1       -0.3805
     38 C         144.9194  140.3772  163.5981 C.3     1  UNL1        0.1544
     39 O         145.2479  139.2505  164.5323 O.3     1  UNL1       -0.3805
     40 C         144.8821  141.8341  163.9526 C.3     1  UNL1        0.1044
     41 H         144.2444  139.1536  160.4527 H       1  UNL1        0.2105
     42 H         145.2013  138.4087  164.0526 H       1  UNL1        0.2105
@<TRIPOS>BOND
     1    23    24    1
     2    24    17    1
     3    17    18   ar
     4    18    19   ar
     5    19    20   ar
     6    20    16    1
     7    16    15    1
     8    15     7    1
     9     7     8   ar
    10     8     9   ar
    11     9    10   ar
    12    10     1    1
    13     1     2    1
    14     2     3    1
    15     3     4   am
    16     4     5    2
    17     4    25    1
    18    25    26   ar
    19    26    27   ar
    20    27    31    1
    21    31    32    1
    22    32    33    1
    23    33    34    1
    24    34    35    1
    25    35    36    1
    26    36    37    1
    27    36    38    1
    28    38    39    1
    29    38    40    1
    30    27    28   ar
    31    28    29   ar
    32    29    30   ar
    33     3     6    1
    34    10    11   ar
    35    11    12   ar
    36    12    13    1
    37    13    14    1
    38    20    21   ar
    39    21    22   ar
    40    22    17   ar
    41    12     7   ar
    42     6     1    1
    43    30    25   ar
    44    40    34    1
    45    37    41    1
    46    39    42    1
@<TRIPOS>MOLECULE
*****
 42 46 0 0 0
SMALL
GASTEIGER

@<TRIPOS>ATOM
      1 C         142.9562  140.8539  159.7326 C.3     1  UNL1        0.0621
      2 C         141.9383  141.4081  160.6849 C.3     1  UNL1        0.0998
      3 N         142.9277  142.4383  161.1428 N.am    1  UNL1       -0.2741
      4 C         142.9075  143.5587  162.1400 C.2     1  UNL1        0.2669
      5 O         144.1265  144.4104  162.3360 O.2     1  UNL1       -0.2683
      6 C         143.9455  141.8842  160.1907 C.3     1  UNL1        0.0998
      7 C         143.0168  137.4928  156.7411 C.ar    1  UNL1        0.1727
      8 C         142.7082  137.2094  158.1815 C.ar    1  UNL1        0.0397
      9 C         142.6880  138.3298  159.1786 C.ar    1  UNL1       -0.0009
     10 C         142.9764  139.7335  158.7354 C.ar    1  UNL1       -0.0160
     11 C         143.2849  140.0169  157.2952 C.ar    1  UNL1        0.0359
     12 C         143.3051  138.8965  156.2980 C.ar    1  UNL1        0.1721
     13 O         143.6136  139.1799  154.8577 O.3     1  UNL1       -0.4684
     14 C         145.0371  139.1969  154.3848 C.3     1  UNL1        0.2526
     15 O         143.0370  136.3724  155.7439 O.3     1  UNL1       -0.4676
     16 C         142.1709  135.1659  155.9538 C.3     1  UNL1        0.2321
     17 C         143.9946  131.3082  157.3830 C.ar    1  UNL1       -0.0222
     18 C         142.7434  131.2852  156.5561 C.ar    1  UNL1       -0.0045
     19 C         142.1355  132.5711  156.0797 C.ar    1  UNL1       -0.0010
     20 C         142.7788  133.8800  156.4302 C.ar    1  UNL1        0.0211
     21 C         144.0300  133.9030  157.2572 C.ar    1  UNL1       -0.0010
     22 C         144.6379  132.6171  157.7336 C.ar    1  UNL1       -0.0045
     23 C         143.7984  129.0811  158.7065 C.3     1  UNL1        0.0050
     24 C         144.6025  130.0224  157.8595 C.3     1  UNL1        0.0264
     25 C         141.6681  143.8274  162.9412 C.ar    1  UNL1        0.1377
     26 C         141.4071  143.0553  164.2005 C.ar    1  UNL1        0.0606
     27 C         140.1677  143.3240  165.0017 C.ar    1  UNL1        0.1418
     28 C         139.1895  144.3647  164.5436 C.ar    1  UNL1        0.0576
     29 C         139.4506  145.1368  163.2843 C.ar    1  UNL1        0.1021
     30 N         140.6899  144.8681  162.4832 N.ar    1  UNL1       -0.2390
     31 O         139.9067  142.5519  166.2609 O.3     1  UNL1       -0.4739
     32 C         139.6918  141.0686  166.2004 C.3     1  UNL1        0.2227
     33 C         140.7760  140.1347  166.6499 C.3     1  UNL1        0.1202
     34 N         141.1285  140.0398  168.1048 N.3     1  UNL1       -0.2653
     35 C         142.4876  139.7409  168.6651 C.3     1  UNL1        0.1044
     36 C         142.3829  139.7435  170.1613 C.3     1  UNL1        0.1544
     37 O         143.5049  139.4901  171.1242 O.3     1  UNL1       -0.3805
     38 C         140.9592  140.0439  170.5259 C.3     1  UNL1        0.1544
     39 O         140.4077  140.1437  171.9173 O.3     1  UNL1       -0.3805
     40 C         140.1840  140.2270  169.2550 C.3     1  UNL1        0.1044
     41 H         144.3226  139.3213  170.6305 H       1  UNL1        0.2105
     42 H         141.1174  139.9830  172.5587 H       1  UNL1        0.2105
@<TRIPOS>BOND
     1    23    24    1
     2    24    17    1
     3    17    18   ar
     4    18    19   ar
     5    19    20   ar
     6    20    16    1
     7    16    15    1
     8    15     7    1
     9     7     8   ar
    10     8     9   ar
    11     9    10   ar
    12    10     1    1
    13     1     2    1
    14     2     3    1
    15     3     4   am
    16     4     5    2
    17     4    25    1
    18    25    26   ar
    19    26    27   ar
    20    27    31    1
    21    31    32    1
    22    32    33    1
    23    33    34    1
    24    34    35    1
    25    35    36    1
    26    36    37    1
    27    36    38    1
    28    38    39    1
    29    38    40    1
    30    27    28   ar
    31    28    29   ar
    32    29    30   ar
    33     3     6    1
    34    10    11   ar
    35    11    12   ar
    36    12    13    1
    37    13    14    1
    38    20    21   ar
    39    21    22   ar
    40    22    17   ar
    41    12     7   ar
    42     6     1    1
    43    30    25   ar
    44    40    34    1
    45    37    41    1
    46    39    42    1
@<TRIPOS>MOLECULE
*****
 42 46 0 0 0
SMALL
GASTEIGER

@<TRIPOS>ATOM
      1 C         142.9138  141.1191  159.8775 C.3     1  UNL1        0.0621
      2 C         142.0885  141.3988  161.0985 C.3     1  UNL1        0.0998
      3 N         142.9238  142.6111  161.3854 N.am    1  UNL1       -0.2741
      4 C         142.9308  143.6661  162.4517 C.2     1  UNL1        0.2669
      5 O         143.9513  144.7648  162.4129 O.2     1  UNL1       -0.2683
      6 C         143.7491  142.3315  160.1646 C.3     1  UNL1        0.0998
      7 C         142.8927  137.9541  156.6787 C.ar    1  UNL1        0.1727
      8 C         142.1602  137.7231  157.9672 C.ar    1  UNL1        0.0397
      9 C         142.1673  138.7781  159.0335 C.ar    1  UNL1       -0.0009
     10 C         142.9068  140.0641  158.8113 C.ar    1  UNL1       -0.0160
     11 C         143.6393  140.2951  157.5228 C.ar    1  UNL1        0.0359
     12 C         143.6322  139.2401  156.4566 C.ar    1  UNL1        0.1721
     13 O         144.3647  139.4710  155.1681 O.3     1  UNL1       -0.4684
     14 C         145.6273  140.2808  155.1579 C.3     1  UNL1        0.2526
     15 O         142.8857  136.8991  155.6125 O.3     1  UNL1       -0.4676
     16 C         141.9991  135.6973  155.7523 C.3     1  UNL1        0.2321
     17 C         143.7187  131.7840  157.1592 C.ar    1  UNL1       -0.0222
     18 C         142.5309  131.7953  156.2432 C.ar    1  UNL1       -0.0045
     19 C         141.9577  133.0997  155.7743 C.ar    1  UNL1       -0.0010
     20 C         142.5723  134.3929  156.2213 C.ar    1  UNL1        0.0211
     21 C         143.7601  134.3817  157.1372 C.ar    1  UNL1       -0.0010
     22 C         144.3333  133.0773  157.6062 C.ar    1  UNL1       -0.0045
     23 C         143.5845  129.1942  157.3162 C.3     1  UNL1        0.0050
     24 C         144.2919  130.4796  157.6281 C.3     1  UNL1        0.0264
     25 C         141.9174  143.6224  163.5567 C.ar    1  UNL1        0.1377
     26 C         142.0616  142.6248  164.6676 C.ar    1  UNL1        0.0606
     27 C         141.0481  142.5811  165.7726 C.ar    1  UNL1        0.1418
     28 C         139.8905  143.5350  165.7668 C.ar    1  UNL1        0.0576
     29 C         139.7463  144.5326  164.6558 C.ar    1  UNL1        0.1021
     30 N         140.7598  144.5763  163.5509 N.ar    1  UNL1       -0.2390
     31 O         141.1923  141.5835  166.8835 O.3     1  UNL1       -0.4739
     32 C         142.5028  140.8867  167.1003 C.3     1  UNL1        0.2227
     33 C         142.6383  139.4275  166.7806 C.3     1  UNL1        0.1202
     34 N         142.7589  138.9804  165.3538 N.3     1  UNL1       -0.2653
     35 C         143.8871  139.3058  164.4203 C.3     1  UNL1        0.1044
     36 C         143.5979  138.6559  163.0997 C.3     1  UNL1        0.1544
     37 O         144.4637  138.7215  161.8764 O.3     1  UNL1       -0.3805
     38 C         142.2911  137.9289  163.2170 C.3     1  UNL1        0.1544
     39 O         141.6207  137.1399  162.1317 O.3     1  UNL1       -0.3805
     40 C         141.7726  138.1295  164.6101 C.3     1  UNL1        0.1044
     41 H         145.2516  139.2544  162.0662 H       1  UNL1        0.2105
     42 H         142.1640  137.1682  161.3286 H       1  UNL1        0.2105
@<TRIPOS>BOND
     1    23    24    1
     2    24    17    1
     3    17    18   ar
     4    18    19   ar
     5    19    20   ar
     6    20    16    1
     7    16    15    1
     8    15     7    1
     9     7     8   ar
    10     8     9   ar
    11     9    10   ar
    12    10     1    1
    13     1     2    1
    14     2     3    1
    15     3     4   am
    16     4     5    2
    17     4    25    1
    18    25    26   ar
    19    26    27   ar
    20    27    31    1
    21    31    32    1
    22    32    33    1
    23    33    34    1
    24    34    35    1
    25    35    36    1
    26    36    37    1
    27    36    38    1
    28    38    39    1
    29    38    40    1
    30    27    28   ar
    31    28    29   ar
    32    29    30   ar
    33     3     6    1
    34    10    11   ar
    35    11    12   ar
    36    12    13    1
    37    13    14    1
    38    20    21   ar
    39    21    22   ar
    40    22    17   ar
    41    12     7   ar
    42     6     1    1
    43    30    25   ar
    44    40    34    1
    45    37    41    1
    46    39    42    1
@<TRIPOS>MOLECULE
*****
 42 46 0 0 0
SMALL
GASTEIGER

@<TRIPOS>ATOM
      1 C         142.7015  141.2182  159.9235 C.3     1  UNL1        0.0621
      2 C         141.8231  141.5653  161.0888 C.3     1  UNL1        0.0998
      3 N         142.7172  142.7239  161.4177 N.am    1  UNL1       -0.2741
      4 C         142.7283  143.7885  162.4743 C.2     1  UNL1        0.2669
      5 O         143.8192  144.8178  162.4904 O.2     1  UNL1       -0.2683
      6 C         143.5956  142.3769  160.2524 C.3     1  UNL1        0.0998
      7 C         142.6683  138.0243  156.7537 C.ar    1  UNL1        0.1727
      8 C         141.5979  138.0494  157.8043 C.ar    1  UNL1        0.0397
      9 C         141.6090  139.1140  158.8609 C.ar    1  UNL1       -0.0009
     10 C         142.6904  140.1536  158.8669 C.ar    1  UNL1       -0.0160
     11 C         143.7607  140.1284  157.8162 C.ar    1  UNL1        0.0359
     12 C         143.7496  139.0638  156.7597 C.ar    1  UNL1        0.1721
     13 O         144.8199  139.0386  155.7090 O.3     1  UNL1       -0.4684
     14 C         145.6436  140.2648  155.4480 C.3     1  UNL1        0.2526
     15 O         142.6572  136.9596  155.6971 O.3     1  UNL1       -0.4676
     16 C         141.8309  135.7224  155.8877 C.3     1  UNL1        0.2321
     17 C         143.7968  131.8758  157.1482 C.ar    1  UNL1       -0.0222
     18 C         142.6128  131.8464  156.2277 C.ar    1  UNL1       -0.0045
     19 C         141.9575  133.1286  155.8075 C.ar    1  UNL1       -0.0010
     20 C         142.4862  134.4402  156.3079 C.ar    1  UNL1        0.0211
     21 C         143.6701  134.4695  157.2283 C.ar    1  UNL1       -0.0010
     22 C         144.3254  133.1873  157.6485 C.ar    1  UNL1       -0.0045
     23 C         143.6158  129.4509  158.0631 C.3     1  UNL1        0.0050
     24 C         144.4521  130.5936  157.5683 C.3     1  UNL1        0.0264
     25 C         141.6484  143.8238  163.5148 C.ar    1  UNL1        0.1377
     26 C         141.7230  142.9132  164.7044 C.ar    1  UNL1        0.0606
     27 C         140.6431  142.9485  165.7449 C.ar    1  UNL1        0.1418
     28 C         139.4885  143.8944  165.5957 C.ar    1  UNL1        0.0576
     29 C         139.4139  144.8051  164.4060 C.ar    1  UNL1        0.1021
     30 N         140.4938  144.7697  163.3656 N.ar    1  UNL1       -0.2390
     31 O         140.7177  142.0380  166.9345 O.3     1  UNL1       -0.4739
     32 C         140.5578  140.5571  166.7568 C.3     1  UNL1        0.2227
     33 C         139.2044  139.9782  166.4684 C.3     1  UNL1        0.1202
     34 N         138.7792  139.7350  165.0507 N.3     1  UNL1       -0.2653
     35 C         138.0619  140.7108  164.1656 C.3     1  UNL1        0.1044
     36 C         137.8361  140.0521  162.8370 C.3     1  UNL1        0.1544
     37 O         137.1525  140.6682  161.6524 O.3     1  UNL1       -0.3805
     38 C         138.4138  138.6693  162.9010 C.3     1  UNL1        0.1544
     39 O         138.4093  137.6598  161.7915 O.3     1  UNL1       -0.3805
     40 C         138.9967  138.4733  164.2691 C.3     1  UNL1        0.1044
     41 H         136.8725  141.5702  161.8736 H       1  UNL1        0.2105
     42 H         137.9710  138.0372  161.0128 H       1  UNL1        0.2105
@<TRIPOS>BOND
     1    23    24    1
     2    24    17    1
     3    17    18   ar
     4    18    19   ar
     5    19    20   ar
     6    20    16    1
     7    16    15    1
     8    15     7    1
     9     7     8   ar
    10     8     9   ar
    11     9    10   ar
    12    10     1    1
    13     1     2    1
    14     2     3    1
    15     3     4   am
    16     4     5    2
    17     4    25    1
    18    25    26   ar
    19    26    27   ar
    20    27    31    1
    21    31    32    1
    22    32    33    1
    23    33    34    1
    24    34    35    1
    25    35    36    1
    26    36    37    1
    27    36    38    1
    28    38    39    1
    29    38    40    1
    30    27    28   ar
    31    28    29   ar
    32    29    30   ar
    33     3     6    1
    34    10    11   ar
    35    11    12   ar
    36    12    13    1
    37    13    14    1
    38    20    21   ar
    39    21    22   ar
    40    22    17   ar
    41    12     7   ar
    42     6     1    1
    43    30    25   ar
    44    40    34    1
    45    37    41    1
    46    39    42    1
