@<TRIPOS>MOLECULE
*****
 34 38 0 0 0
SMALL
GASTEIGER

@<TRIPOS>ATOM
      1 C         138.8859  140.5291  165.1873 C.3     1  UNL1        0.0777
      2 N         139.0818  141.5439  164.1002 N.3     1  UNL1       -0.2900
      3 C         139.8759  142.7876  164.3696 C.3     1  UNL1        0.1161
      4 C         140.4741  143.0165  165.7260 C.3     1  UNL1        0.0510
      5 C         140.2781  142.0017  166.8130 C.2     1  UNL1       -0.0045
      6 C         139.4840  140.7580  166.5437 C.2     1  UNL1        0.0673
      7 N         139.4595  139.9422  167.8022 N.2     1  UNL1       -0.2527
      8 C         140.2385  140.6817  168.8493 C.2     1  UNL1        0.0627
      9 C         140.5524  140.3604  170.2804 C.3     1  UNL1        0.0717
     10 C         141.3723  141.3120  171.1002 C.2     1  UNL1       -0.0198
     11 C         141.8782  142.5850  170.4889 C.2     1  UNL1       -0.0042
     12 C         141.5643  142.9062  169.0577 C.2     1  UNL1        0.0006
     13 C         140.7444  141.9546  168.2380 C.2     1  UNL1        0.0111
     14 H         138.1523  141.8455  163.8080 H       1  UNL1        0.1239
     15 C         140.0719  143.8025  163.2824 C.ar    1  UNL1        0.1318
     16 N         140.4962  143.5138  161.8730 N.ar    1  UNL1       -0.2298
     17 C         140.5645  144.8171  161.1334 C.ar    1  UNL1        0.0996
     18 C         140.1824  145.9111  162.0858 C.ar    1  UNL1        0.0927
     19 N         139.8779  145.2840  163.4140 N.ar    1  UNL1       -0.3386
     20 H         139.5996  145.7611  164.2290 H       1  UNL1        0.1672
     21 C         140.9476  144.9950  159.6941 C.ar    1  UNL1        0.0192
     22 C         142.1079  144.2319  159.1270 C.ar    1  UNL1        0.0015
     23 C         142.4911  144.4098  157.6878 C.ar    1  UNL1        0.0000
     24 C         141.7140  145.3507  156.8156 C.ar    1  UNL1        0.0000
     25 C         140.5538  146.1138  157.3826 C.ar    1  UNL1        0.0000
     26 C         140.1706  145.9359  158.8219 C.ar    1  UNL1        0.0015
     27 C         138.4268  139.2847  165.8879 C.3     1  UNL1        0.0202
     28 C         138.7216  137.9385  165.2955 C.3     1  UNL1        0.0017
     29 C         140.7004  137.2943  163.7399 C.3     1  UNL1        0.0000
     30 C         140.1426  137.4920  165.1182 C.3     1  UNL1        0.0001
     31 C         138.1283  139.8680  164.0742 C.3     1  UNL1        0.0202
     32 C         138.1794  140.4405  162.6887 C.3     1  UNL1        0.0017
     33 C         137.7955  139.5927  161.5123 C.3     1  UNL1        0.0001
     34 C         137.7858  138.0980  161.6364 C.3     1  UNL1        0.0000
@<TRIPOS>BOND
     1    29    30    1
     2    30    28    1
     3    28    27    1
     4    27     1    1
     5     1    31    1
     6    31    32    1
     7    32    33    1
     8    33    34    1
     9     1     2    1
    10     2     3    1
    11     3    15    1
    12    15    16   ar
    13    16    17   ar
    14    17    21    1
    15    21    22   ar
    16    22    23   ar
    17    23    24   ar
    18    24    25   ar
    19    25    26   ar
    20    17    18   ar
    21    18    19   ar
    22     3     4    1
    23     4     5    1
    24     5     6    2
    25     6     7    1
    26     7     8    2
    27     8     9    1
    28     9    10    1
    29    10    11    2
    30    11    12    1
    31    12    13    2
    32     6     1    1
    33    13     8    1
    34    19    15   ar
    35    13     5    1
    36    26    21   ar
    37     2    14    1
    38    19    20    1
@<TRIPOS>MOLECULE
*****
 34 38 0 0 0
SMALL
GASTEIGER

@<TRIPOS>ATOM
      1 C         141.2076  142.6221  163.4271 C.3     1  UNL1        0.0777
      2 N         141.8741  142.3527  162.1106 N.3     1  UNL1       -0.2900
      3 C         141.8016  140.9849  161.4993 C.3     1  UNL1        0.1161
      4 C         141.0626  139.8864  162.2044 C.3     1  UNL1        0.0510
      5 C         140.3960  140.1558  163.5209 C.2     1  UNL1       -0.0045
      6 C         140.4685  141.5236  164.1322 C.2     1  UNL1        0.0673
      7 N         139.7191  141.4910  165.4312 N.2     1  UNL1       -0.2527
      8 C         139.1834  140.1030  165.6226 C.2     1  UNL1        0.0627
      9 C         138.3688  139.4840  166.7195 C.3     1  UNL1        0.0717
     10 C         137.9725  138.0398  166.6357 C.2     1  UNL1       -0.0198
     11 C         138.3908  137.2145  165.4550 C.2     1  UNL1       -0.0042
     12 C         139.2055  137.8335  164.3581 C.2     1  UNL1        0.0006
     13 C         139.6018  139.2778  164.4420 C.2     1  UNL1        0.0111
     14 H         142.8635  142.5690  162.2318 H       1  UNL1        0.1239
     15 C         142.4682  140.7155  160.1827 C.ar    1  UNL1        0.1318
     16 N         143.6521  141.4502  159.6273 N.ar    1  UNL1       -0.2298
     17 C         143.9835  140.8529  158.2919 C.ar    1  UNL1        0.0996
     18 C         143.0044  139.7490  158.0220 C.ar    1  UNL1        0.0927
     19 N         142.0679  139.6641  159.1906 N.ar    1  UNL1       -0.3386
     20 H         141.3216  139.0296  159.2892 H       1  UNL1        0.1672
     21 C         145.0983  141.2839  157.3854 C.ar    1  UNL1        0.0192
     22 C         145.3118  140.5859  156.0750 C.ar    1  UNL1        0.0015
     23 C         146.4265  141.0168  155.1686 C.ar    1  UNL1        0.0000
     24 C         147.3277  142.1457  155.5726 C.ar    1  UNL1        0.0000
     25 C         147.1143  142.8437  156.8830 C.ar    1  UNL1        0.0000
     26 C         145.9996  142.4128  157.7894 C.ar    1  UNL1        0.0015
     27 C         140.7414  143.3622  164.6457 C.3     1  UNL1        0.0202
     28 C         139.9933  144.6539  164.4981 C.3     1  UNL1        0.0017
     29 C         137.6524  143.9806  163.5943 C.3     1  UNL1        0.0000
     30 C         138.4985  144.6732  164.6212 C.3     1  UNL1        0.0001
     31 C         141.7847  143.9775  163.1452 C.3     1  UNL1        0.0202
     32 C         143.2720  144.1599  163.0763 C.3     1  UNL1        0.0017
     33 C         144.0382  144.5456  164.3070 C.3     1  UNL1        0.0001
     34 C         144.4234  143.4984  165.3094 C.3     1  UNL1        0.0000
@<TRIPOS>BOND
     1    29    30    1
     2    30    28    1
     3    28    27    1
     4    27     1    1
     5     1    31    1
     6    31    32    1
     7    32    33    1
     8    33    34    1
     9     1     2    1
    10     2     3    1
    11     3    15    1
    12    15    16   ar
    13    16    17   ar
    14    17    21    1
    15    21    22   ar
    16    22    23   ar
    17    23    24   ar
    18    24    25   ar
    19    25    26   ar
    20    17    18   ar
    21    18    19   ar
    22     3     4    1
    23     4     5    1
    24     5     6    2
    25     6     7    1
    26     7     8    2
    27     8     9    1
    28     9    10    1
    29    10    11    2
    30    11    12    1
    31    12    13    2
    32     6     1    1
    33    13     8    1
    34    19    15   ar
    35    13     5    1
    36    26    21   ar
    37     2    14    1
    38    19    20    1
@<TRIPOS>MOLECULE
*****
 34 38 0 0 0
SMALL
GASTEIGER

@<TRIPOS>ATOM
      1 C         140.2429  140.1695  164.8063 C.3     1  UNL1        0.0777
      2 N         140.2722  141.1695  163.6887 N.3     1  UNL1       -0.2900
      3 C         140.3422  142.6360  163.9962 C.3     1  UNL1        0.1161
      4 C         140.3828  143.1024  165.4213 C.3     1  UNL1        0.0510
      5 C         140.3534  142.1024  166.5389 C.2     1  UNL1       -0.0045
      6 C         140.2835  140.6359  166.2314 C.2     1  UNL1        0.0673
      7 N         140.2680  139.8898  167.5326 N.2     1  UNL1       -0.2527
      8 C         140.3284  140.8951  168.6442 C.2     1  UNL1        0.0627
      9 C         140.3422  140.7420  170.1363 C.3     1  UNL1        0.0717
     10 C         140.4087  141.9564  171.0142 C.2     1  UNL1       -0.0198
     11 C         140.4615  143.3239  170.4000 C.2     1  UNL1       -0.0042
     12 C         140.4477  143.4770  168.9080 C.2     1  UNL1        0.0006
     13 C         140.3812  142.2626  168.0300 C.2     1  UNL1        0.0111
     14 H         139.4244  141.0236  163.1407 H       1  UNL1        0.1239
     15 C         140.3715  143.6361  162.8786 C.ar    1  UNL1        0.1318
     16 N         140.8683  143.3869  161.4854 N.ar    1  UNL1       -0.2298
     17 C         140.7131  144.6577  160.7037 C.ar    1  UNL1        0.0996
     18 C         140.1204  145.6922  161.6138 C.ar    1  UNL1        0.0927
     19 N         139.9093  145.0608  162.9580 N.ar    1  UNL1       -0.3386
     20 H         139.5333  145.5038  163.7528 H       1  UNL1        0.1672
     21 C         141.0853  144.8586  159.2645 C.ar    1  UNL1        0.0192
     22 C         140.3215  145.8366  158.4218 C.ar    1  UNL1        0.0015
     23 C         140.6936  146.0376  156.9827 C.ar    1  UNL1        0.0000
     24 C         141.8295  145.2605  156.3863 C.ar    1  UNL1        0.0000
     25 C         142.5934  144.2825  157.2290 C.ar    1  UNL1        0.0000
     26 C         142.2212  144.0816  158.6681 C.ar    1  UNL1        0.0015
     27 C         140.1934  138.8480  165.5145 C.3     1  UNL1        0.0202
     28 C         139.2211  137.7955  165.0710 C.3     1  UNL1        0.0017
     29 C         137.5205  138.2552  166.9806 C.3     1  UNL1        0.0000
     30 C         138.1648  137.3043  166.0159 C.3     1  UNL1        0.0001
     31 C         140.1851  139.2441  163.6272 C.3     1  UNL1        0.0202
     32 C         141.3181  139.2095  162.6448 C.3     1  UNL1        0.0017
     33 C         142.5502  138.4098  162.9487 C.3     1  UNL1        0.0001
     34 C         143.8127  139.1058  163.3630 C.3     1  UNL1        0.0000
@<TRIPOS>BOND
     1    29    30    1
     2    30    28    1
     3    28    27    1
     4    27     1    1
     5     1    31    1
     6    31    32    1
     7    32    33    1
     8    33    34    1
     9     1     2    1
    10     2     3    1
    11     3    15    1
    12    15    16   ar
    13    16    17   ar
    14    17    21    1
    15    21    22   ar
    16    22    23   ar
    17    23    24   ar
    18    24    25   ar
    19    25    26   ar
    20    17    18   ar
    21    18    19   ar
    22     3     4    1
    23     4     5    1
    24     5     6    2
    25     6     7    1
    26     7     8    2
    27     8     9    1
    28     9    10    1
    29    10    11    2
    30    11    12    1
    31    12    13    2
    32     6     1    1
    33    13     8    1
    34    19    15   ar
    35    13     5    1
    36    26    21   ar
    37     2    14    1
    38    19    20    1
@<TRIPOS>MOLECULE
*****
 34 38 0 0 0
SMALL
GASTEIGER

@<TRIPOS>ATOM
      1 C         141.1080  142.0116  163.0230 C.3     1  UNL1        0.0777
      2 N         141.6567  141.5446  161.7074 N.3     1  UNL1       -0.2900
      3 C         141.4499  140.1248  161.2700 C.3     1  UNL1        0.1161
      4 C         140.6943  139.1719  162.1482 C.3     1  UNL1        0.0510
      5 C         140.1456  139.6389  163.4638 C.2     1  UNL1       -0.0045
      6 C         140.3524  141.0587  163.9012 C.2     1  UNL1        0.0673
      7 N         139.7002  141.2306  165.2410 N.2     1  UNL1       -0.2527
      8 C         139.0902  139.9171  165.6316 C.2     1  UNL1        0.0627
      9 C         138.3197  139.4897  166.8455 C.3     1  UNL1        0.0717
     10 C         137.8245  138.0786  166.9611 C.2     1  UNL1       -0.0198
     11 C         138.0998  137.0948  165.8627 C.2     1  UNL1       -0.0042
     12 C         138.8703  137.5222  164.6488 C.2     1  UNL1        0.0006
     13 C         139.3655  138.9333  164.5332 C.2     1  UNL1        0.0111
     14 H         142.6644  141.6998  161.7369 H       1  UNL1        0.1239
     15 C         141.9987  139.6577  159.9544 C.ar    1  UNL1        0.1318
     16 N         141.5586  138.4394  159.1981 N.ar    1  UNL1       -0.2298
     17 C         142.3717  138.3557  157.9404 C.ar    1  UNL1        0.0996
     18 C         143.3143  139.5223  157.9194 C.ar    1  UNL1        0.0927
     19 N         143.0837  140.3270  159.1641 N.ar    1  UNL1       -0.3386
     20 H         143.5608  141.1500  159.4178 H       1  UNL1        0.1672
     21 C         142.2615  137.2921  156.8884 C.ar    1  UNL1        0.0192
     22 C         140.9125  136.8740  156.3830 C.ar    1  UNL1        0.0015
     23 C         140.8023  135.8104  155.3311 C.ar    1  UNL1        0.0000
     24 C         142.0411  135.1650  154.7845 C.ar    1  UNL1        0.0000
     25 C         143.3901  135.5831  155.2899 C.ar    1  UNL1        0.0000
     26 C         143.5003  136.6466  156.3419 C.ar    1  UNL1        0.0015
     27 C         140.7823  142.9189  164.1723 C.3     1  UNL1        0.0202
     28 C         140.2080  144.2802  163.9135 C.3     1  UNL1        0.0017
     29 C         137.7057  144.1214  164.5944 C.3     1  UNL1        0.0000
     30 C         139.0499  144.7731  164.7297 C.3     1  UNL1        0.0001
     31 C         141.7504  143.2795  162.5439 C.3     1  UNL1        0.0202
     32 C         143.2120  143.2990  162.2072 C.3     1  UNL1        0.0017
     33 C         144.1155  144.3116  162.8463 C.3     1  UNL1        0.0001
     34 C         143.8654  144.7552  164.2572 C.3     1  UNL1        0.0000
@<TRIPOS>BOND
     1    29    30    1
     2    30    28    1
     3    28    27    1
     4    27     1    1
     5     1    31    1
     6    31    32    1
     7    32    33    1
     8    33    34    1
     9     1     2    1
    10     2     3    1
    11     3    15    1
    12    15    16   ar
    13    16    17   ar
    14    17    21    1
    15    21    22   ar
    16    22    23   ar
    17    23    24   ar
    18    24    25   ar
    19    25    26   ar
    20    17    18   ar
    21    18    19   ar
    22     3     4    1
    23     4     5    1
    24     5     6    2
    25     6     7    1
    26     7     8    2
    27     8     9    1
    28     9    10    1
    29    10    11    2
    30    11    12    1
    31    12    13    2
    32     6     1    1
    33    13     8    1
    34    19    15   ar
    35    13     5    1
    36    26    21   ar
    37     2    14    1
    38    19    20    1
@<TRIPOS>MOLECULE
*****
 34 38 0 0 0
SMALL
GASTEIGER

@<TRIPOS>ATOM
      1 C         140.4792  142.0342  162.4968 C.3     1  UNL1        0.0777
      2 N         140.8099  141.4732  161.1455 N.3     1  UNL1       -0.2900
      3 C         141.6853  140.2606  161.0307 C.3     1  UNL1        0.1161
      4 C         142.2300  139.6090  162.2671 C.3     1  UNL1        0.0510
      5 C         141.8993  140.1700  163.6183 C.2     1  UNL1       -0.0045
      6 C         141.0239  141.3826  163.7332 C.2     1  UNL1        0.0673
      7 N         140.8709  141.7075  165.1895 N.2     1  UNL1       -0.2527
      8 C         141.6517  140.6957  165.9748 C.2     1  UNL1        0.0627
      9 C         141.8661  140.5170  167.4485 C.3     1  UNL1        0.0717
     10 C         142.7161  139.3879  167.9512 C.2     1  UNL1       -0.0198
     11 C         143.3517  138.4376  166.9802 C.2     1  UNL1       -0.0042
     12 C         143.1373  138.6164  165.5064 C.2     1  UNL1        0.0006
     13 C         142.2873  139.7455  165.0037 C.2     1  UNL1        0.0111
     14 H         141.2688  142.2184  160.6216 H       1  UNL1        0.1239
     15 C         142.0160  139.6996  159.6794 C.ar    1  UNL1        0.1318
     16 N         141.6303  138.3426  159.1697 N.ar    1  UNL1       -0.2298
     17 C         142.1664  138.2014  157.7759 C.ar    1  UNL1        0.0996
     18 C         142.8834  139.4711  157.4242 C.ar    1  UNL1        0.0927
     19 N         142.7905  140.3970  158.6006 N.ar    1  UNL1       -0.3386
     20 H         143.1710  141.3034  158.6552 H       1  UNL1        0.1672
     21 C         142.0124  137.0011  156.8894 C.ar    1  UNL1        0.0192
     22 C         142.9902  135.8677  156.9852 C.ar    1  UNL1        0.0015
     23 C         142.8363  134.6674  156.0988 C.ar    1  UNL1        0.0000
     24 C         141.7046  134.6007  155.1166 C.ar    1  UNL1        0.0000
     25 C         140.7268  135.7342  155.0208 C.ar    1  UNL1        0.0000
     26 C         140.8807  136.9344  155.9072 C.ar    1  UNL1        0.0015
     27 C         139.8880  142.9295  163.5452 C.3     1  UNL1        0.0202
     28 C         138.4105  143.1879  163.5643 C.3     1  UNL1        0.0017
     29 C         138.7285  144.9285  165.4667 C.3     1  UNL1        0.0000
     30 C         137.8252  144.1192  164.5842 C.3     1  UNL1        0.0001
     31 C         139.7291  142.9968  161.6245 C.3     1  UNL1        0.0202
     32 C         140.4748  143.8810  160.6694 C.3     1  UNL1        0.0017
     33 C         140.1443  145.3418  160.5859 C.3     1  UNL1        0.0001
     34 C         139.8591  146.1189  161.8368 C.3     1  UNL1        0.0000
@<TRIPOS>BOND
     1    29    30    1
     2    30    28    1
     3    28    27    1
     4    27     1    1
     5     1    31    1
     6    31    32    1
     7    32    33    1
     8    33    34    1
     9     1     2    1
    10     2     3    1
    11     3    15    1
    12    15    16   ar
    13    16    17   ar
    14    17    21    1
    15    21    22   ar
    16    22    23   ar
    17    23    24   ar
    18    24    25   ar
    19    25    26   ar
    20    17    18   ar
    21    18    19   ar
    22     3     4    1
    23     4     5    1
    24     5     6    2
    25     6     7    1
    26     7     8    2
    27     8     9    1
    28     9    10    1
    29    10    11    2
    30    11    12    1
    31    12    13    2
    32     6     1    1
    33    13     8    1
    34    19    15   ar
    35    13     5    1
    36    26    21   ar
    37     2    14    1
    38    19    20    1
@<TRIPOS>MOLECULE
*****
 34 38 0 0 0
SMALL
GASTEIGER

@<TRIPOS>ATOM
      1 C         140.8938  142.9504  164.5440 C.3     1  UNL1        0.0777
      2 N         141.4616  142.0868  163.4569 N.3     1  UNL1       -0.2900
      3 C         141.9577  140.7078  163.7768 C.3     1  UNL1        0.1161
      4 C         141.8859  140.1924  165.1837 C.3     1  UNL1        0.0510
      5 C         141.3181  141.0561  166.2707 C.2     1  UNL1       -0.0045
      6 C         140.8220  142.4351  165.9509 C.2     1  UNL1        0.0673
      7 N         140.3175  143.0525  167.2214 N.2     1  UNL1       -0.2527
      8 C         140.5018  142.0551  168.3265 C.2     1  UNL1        0.0627
      9 C         140.1864  142.1109  169.7919 C.3     1  UNL1        0.0717
     10 C         140.4894  140.9330  170.6697 C.2     1  UNL1       -0.0198
     11 C         141.1078  139.6991  170.0821 C.2     1  UNL1       -0.0042
     12 C         141.4232  139.6433  168.6167 C.2     1  UNL1        0.0006
     13 C         141.1202  140.8212  167.7390 C.2     1  UNL1        0.0111
     14 H         142.2485  142.5972  163.0562 H       1  UNL1        0.1239
     15 C         142.5255  139.8440  162.6897 C.ar    1  UNL1        0.1318
     16 N         142.2852  140.0070  161.2182 N.ar    1  UNL1       -0.2298
     17 C         143.0445  138.9295  160.5024 C.ar    1  UNL1        0.0996
     18 C         143.7541  138.1006  161.5316 C.ar    1  UNL1        0.0927
     19 N         143.4333  138.6658  162.8835 N.ar    1  UNL1       -0.3386
     20 H         143.7611  138.3235  163.7464 H       1  UNL1        0.1672
     21 C         143.0868  138.7180  159.0179 C.ar    1  UNL1        0.0192
     22 C         142.6990  137.3900  158.4382 C.ar    1  UNL1        0.0015
     23 C         142.7413  137.1785  156.9538 C.ar    1  UNL1        0.0000
     24 C         143.1713  138.2950  156.0491 C.ar    1  UNL1        0.0000
     25 C         143.5590  139.6230  156.6288 C.ar    1  UNL1        0.0000
     26 C         143.5167  139.8345  158.1132 C.ar    1  UNL1        0.0015
     27 C         140.2764  144.1361  165.2246 C.3     1  UNL1        0.0202
     28 C         139.0380  144.7650  164.6582 C.3     1  UNL1        0.0017
     29 C         137.3454  142.9257  163.9494 C.3     1  UNL1        0.0000
     30 C         137.7097  144.0881  164.8246 C.3     1  UNL1        0.0001
     31 C         140.7511  143.8775  163.3735 C.3     1  UNL1        0.0202
     32 C         141.9701  144.3500  162.6380 C.3     1  UNL1        0.0017
     33 C         142.9890  145.1971  163.3412 C.3     1  UNL1        0.0001
     34 C         143.9829  144.5611  164.2671 C.3     1  UNL1        0.0000
@<TRIPOS>BOND
     1    29    30    1
     2    30    28    1
     3    28    27    1
     4    27     1    1
     5     1    31    1
     6    31    32    1
     7    32    33    1
     8    33    34    1
     9     1     2    1
    10     2     3    1
    11     3    15    1
    12    15    16   ar
    13    16    17   ar
    14    17    21    1
    15    21    22   ar
    16    22    23   ar
    17    23    24   ar
    18    24    25   ar
    19    25    26   ar
    20    17    18   ar
    21    18    19   ar
    22     3     4    1
    23     4     5    1
    24     5     6    2
    25     6     7    1
    26     7     8    2
    27     8     9    1
    28     9    10    1
    29    10    11    2
    30    11    12    1
    31    12    13    2
    32     6     1    1
    33    13     8    1
    34    19    15   ar
    35    13     5    1
    36    26    21   ar
    37     2    14    1
    38    19    20    1
@<TRIPOS>MOLECULE
*****
 34 38 0 0 0
SMALL
GASTEIGER

@<TRIPOS>ATOM
      1 C         139.0003  140.2559  163.2549 C.3     1  UNL1        0.0777
      2 N         139.2273  141.3478  162.2518 N.3     1  UNL1       -0.2900
      3 C         139.7362  142.6853  162.7014 C.3     1  UNL1        0.1161
      4 C         140.0181  142.9309  164.1540 C.3     1  UNL1        0.0510
      5 C         139.7911  141.8390  165.1571 C.2     1  UNL1       -0.0045
      6 C         139.2822  140.5015  164.7076 C.2     1  UNL1        0.0673
      7 N         139.1550  139.6236  165.9171 N.2     1  UNL1       -0.2527
      8 C         139.5854  140.4184  167.1142 C.2     1  UNL1        0.0627
      9 C         139.6700  140.0723  168.5712 C.3     1  UNL1        0.0717
     10 C         140.1478  141.0954  169.5586 C.2     1  UNL1       -0.0198
     11 C         140.5409  142.4647  169.0889 C.2     1  UNL1       -0.0042
     12 C         140.4562  142.8108  167.6318 C.2     1  UNL1        0.0006
     13 C         139.9784  141.7877  166.6445 C.2     1  UNL1        0.0111
     14 H         138.3335  141.5132  161.7892 H       1  UNL1        0.1239
     15 C         139.9633  143.7772  161.6982 C.ar    1  UNL1        0.1318
     16 N         140.3068  143.5870  160.2506 N.ar    1  UNL1       -0.2298
     17 C         140.4425  144.9432  159.6243 C.ar    1  UNL1        0.0996
     18 C         140.1828  145.9716  160.6849 C.ar    1  UNL1        0.0927
     19 N         139.8866  145.2510  161.9667 N.ar    1  UNL1       -0.3386
     20 H         139.6785  145.6715  162.8322 H       1  UNL1        0.1672
     21 C         140.7788  145.2221  158.1893 C.ar    1  UNL1        0.0192
     22 C         139.9908  146.2392  157.4183 C.ar    1  UNL1        0.0015
     23 C         140.3271  146.5181  155.9833 C.ar    1  UNL1        0.0000
     24 C         141.4514  145.7798  155.3194 C.ar    1  UNL1        0.0000
     25 C         142.2394  144.7627  156.0904 C.ar    1  UNL1        0.0000
     26 C         141.9031  144.4838  157.5253 C.ar    1  UNL1        0.0015
     27 C         138.6308  138.9172  163.8219 C.3     1  UNL1        0.0202
     28 C         139.1397  137.6628  163.1758 C.3     1  UNL1        0.0017
     29 C         141.2395  137.1425  164.6146 C.3     1  UNL1        0.0000
     30 C         140.5938  137.3069  163.2707 C.3     1  UNL1        0.0001
     31 C         138.5901  139.5454  161.9992 C.3     1  UNL1        0.0202
     32 C         137.7151  140.2382  160.9971 C.3     1  UNL1        0.0017
     33 C         137.8653  139.9374  159.5352 C.3     1  UNL1        0.0001
     34 C         139.0306  140.4923  158.7712 C.3     1  UNL1        0.0000
@<TRIPOS>BOND
     1    29    30    1
     2    30    28    1
     3    28    27    1
     4    27     1    1
     5     1    31    1
     6    31    32    1
     7    32    33    1
     8    33    34    1
     9     1     2    1
    10     2     3    1
    11     3    15    1
    12    15    16   ar
    13    16    17   ar
    14    17    21    1
    15    21    22   ar
    16    22    23   ar
    17    23    24   ar
    18    24    25   ar
    19    25    26   ar
    20    17    18   ar
    21    18    19   ar
    22     3     4    1
    23     4     5    1
    24     5     6    2
    25     6     7    1
    26     7     8    2
    27     8     9    1
    28     9    10    1
    29    10    11    2
    30    11    12    1
    31    12    13    2
    32     6     1    1
    33    13     8    1
    34    19    15   ar
    35    13     5    1
    36    26    21   ar
    37     2    14    1
    38    19    20    1
@<TRIPOS>MOLECULE
*****
 34 38 0 0 0
SMALL
GASTEIGER

@<TRIPOS>ATOM
      1 C         139.6779  141.8027  162.8288 C.3     1  UNL1        0.0777
      2 N         139.9558  142.6054  161.5925 N.3     1  UNL1       -0.2900
      3 C         141.3448  142.6572  161.0284 C.3     1  UNL1        0.1161
      4 C         142.4558  141.9063  161.7006 C.3     1  UNL1        0.0510
      5 C         142.1779  141.1036  162.9369 C.2     1  UNL1       -0.0045
      6 C         140.7889  141.0518  163.5010 C.2     1  UNL1        0.0673
      7 N         140.8172  140.1827  164.7232 N.2     1  UNL1       -0.2527
      8 C         142.2236  139.6974  164.9145 C.2     1  UNL1        0.0627
      9 C         142.8471  138.8107  165.9514 C.3     1  UNL1        0.0717
     10 C         144.3115  138.4932  165.8842 C.2     1  UNL1       -0.0198
     11 C         145.1525  139.0624  164.7801 C.2     1  UNL1       -0.0042
     12 C         144.5290  139.9490  163.7433 C.2     1  UNL1        0.0006
     13 C         143.0645  140.2665  163.8105 C.2     1  UNL1        0.0111
     14 H         139.6858  143.5671  161.7990 H       1  UNL1        0.1239
     15 C         141.6227  143.4599  159.7921 C.ar    1  UNL1        0.1318
     16 N         140.6199  144.2642  159.0192 N.ar    1  UNL1       -0.2298
     17 C         141.3296  144.9006  157.8611 C.ar    1  UNL1        0.0996
     18 C         142.7711  144.4896  157.9183 C.ar    1  UNL1        0.0927
     19 N         142.9522  143.5992  159.1117 N.ar    1  UNL1       -0.3386
     20 H         143.7956  143.1799  159.3981 H       1  UNL1        0.1672
     21 C         140.7072  145.7916  156.8273 C.ar    1  UNL1        0.0192
     22 C         139.5839  146.7103  157.2072 C.ar    1  UNL1        0.0015
     23 C         138.9614  147.6013  156.1734 C.ar    1  UNL1        0.0000
     24 C         139.4622  147.5736  154.7598 C.ar    1  UNL1        0.0000
     25 C         140.5855  146.6549  154.3799 C.ar    1  UNL1        0.0000
     26 C         141.2080  145.7640  155.4136 C.ar    1  UNL1        0.0015
     27 C         138.9231  141.1864  163.9693 C.3     1  UNL1        0.0202
     28 C         137.8429  140.1818  163.6977 C.3     1  UNL1        0.0017
     29 C         138.7604  137.8461  163.0244 C.3     1  UNL1        0.0000
     30 C         138.0518  139.1174  162.6616 C.3     1  UNL1        0.0001
     31 C         138.3048  142.3396  162.5527 C.3     1  UNL1        0.0202
     32 C         138.0261  143.8047  162.7131 C.3     1  UNL1        0.0017
     33 C         137.7209  144.3659  164.0703 C.3     1  UNL1        0.0001
     34 C         138.8392  144.7917  164.9746 C.3     1  UNL1        0.0000
@<TRIPOS>BOND
     1    29    30    1
     2    30    28    1
     3    28    27    1
     4    27     1    1
     5     1    31    1
     6    31    32    1
     7    32    33    1
     8    33    34    1
     9     1     2    1
    10     2     3    1
    11     3    15    1
    12    15    16   ar
    13    16    17   ar
    14    17    21    1
    15    21    22   ar
    16    22    23   ar
    17    23    24   ar
    18    24    25   ar
    19    25    26   ar
    20    17    18   ar
    21    18    19   ar
    22     3     4    1
    23     4     5    1
    24     5     6    2
    25     6     7    1
    26     7     8    2
    27     8     9    1
    28     9    10    1
    29    10    11    2
    30    11    12    1
    31    12    13    2
    32     6     1    1
    33    13     8    1
    34    19    15   ar
    35    13     5    1
    36    26    21   ar
    37     2    14    1
    38    19    20    1
@<TRIPOS>MOLECULE
*****
 34 38 0 0 0
SMALL
GASTEIGER

@<TRIPOS>ATOM
      1 C         140.8458  142.2136  162.2154 C.3     1  UNL1        0.0777
      2 N         141.4168  141.9338  160.8568 N.3     1  UNL1       -0.2900
      3 C         142.4831  140.8918  160.6915 C.3     1  UNL1        0.1161
      4 C         142.9784  140.1297  161.8848 C.3     1  UNL1        0.0510
      5 C         142.4074  140.4095  163.2433 C.2     1  UNL1       -0.0045
      6 C         141.3412  141.4514  163.4086 C.2     1  UNL1        0.0673
      7 N         140.9701  141.5086  164.8609 N.2     1  UNL1       -0.2527
      8 C         141.8071  140.5019  165.5931 C.2     1  UNL1        0.0627
      9 C         141.8751  140.1161  167.0410 C.3     1  UNL1        0.0717
     10 C         142.8315  139.0510  167.4892 C.2     1  UNL1       -0.0198
     11 C         143.7198  138.3717  166.4895 C.2     1  UNL1       -0.0042
     12 C         143.6518  138.7575  165.0416 C.2     1  UNL1        0.0006
     13 C         142.6954  139.8227  164.5934 C.2     1  UNL1        0.0111
     14 H         141.8076  142.8118  160.5151 H       1  UNL1        0.1239
     15 C         143.0541  140.6119  159.3329 C.ar    1  UNL1        0.1318
     16 N         144.1672  141.3691  158.6714 N.ar    1  UNL1       -0.2298
     17 C         144.4133  140.7509  157.3270 C.ar    1  UNL1        0.0996
     18 C         143.4522  139.6118  157.1577 C.ar    1  UNL1        0.0927
     19 N         142.6122  139.5259  158.3974 N.ar    1  UNL1       -0.3386
     20 H         141.8965  138.8715  158.5673 H       1  UNL1        0.1672
     21 C         145.4402  141.1941  156.3274 C.ar    1  UNL1        0.0192
     22 C         145.3816  140.6871  154.9169 C.ar    1  UNL1        0.0015
     23 C         146.4084  141.1303  153.9174 C.ar    1  UNL1        0.0000
     24 C         147.4939  142.0805  154.3283 C.ar    1  UNL1        0.0000
     25 C         147.5525  142.5875  155.7388 C.ar    1  UNL1        0.0000
     26 C         146.5256  142.1443  156.7384 C.ar    1  UNL1        0.0015
     27 C         140.0009  142.8328  163.2891 C.3     1  UNL1        0.0202
     28 C         138.5366  143.0581  163.0545 C.3     1  UNL1        0.0017
     29 C         137.7137  140.6328  163.4918 C.3     1  UNL1        0.0000
     30 C         137.5292  142.1139  163.6408 C.3     1  UNL1        0.0001
     31 C         140.0571  143.1907  161.3950 C.3     1  UNL1        0.0202
     32 C         140.7673  144.2225  160.5699 C.3     1  UNL1        0.0017
     33 C         140.2527  145.6308  160.5245 C.3     1  UNL1        0.0001
     34 C         139.7842  146.2990  161.7830 C.3     1  UNL1        0.0000
@<TRIPOS>BOND
     1    29    30    1
     2    30    28    1
     3    28    27    1
     4    27     1    1
     5     1    31    1
     6    31    32    1
     7    32    33    1
     8    33    34    1
     9     1     2    1
    10     2     3    1
    11     3    15    1
    12    15    16   ar
    13    16    17   ar
    14    17    21    1
    15    21    22   ar
    16    22    23   ar
    17    23    24   ar
    18    24    25   ar
    19    25    26   ar
    20    17    18   ar
    21    18    19   ar
    22     3     4    1
    23     4     5    1
    24     5     6    2
    25     6     7    1
    26     7     8    2
    27     8     9    1
    28     9    10    1
    29    10    11    2
    30    11    12    1
    31    12    13    2
    32     6     1    1
    33    13     8    1
    34    19    15   ar
    35    13     5    1
    36    26    21   ar
    37     2    14    1
    38    19    20    1
