@<TRIPOS>MOLECULE
*****
 34 38 0 0 0
SMALL
GASTEIGER

@<TRIPOS>ATOM
      1 C         141.8567  142.1989  167.2439 C.ar    1  UNL1        0.0170
      2 C         143.2236  142.1220  166.6309 C.ar    1  UNL1        0.0011
      3 C         143.4755  142.7264  165.2813 C.ar    1  UNL1       -0.0045
      4 C         142.3604  143.4079  164.5448 C.ar    1  UNL1       -0.0247
      5 C         140.9937  143.4848  165.1578 C.ar    1  UNL1       -0.0246
      6 C         140.7417  142.8804  166.5073 C.ar    1  UNL1       -0.0030
      7 C         139.7518  144.1133  164.5984 C.3     1  UNL1        0.0433
      8 C         139.5702  144.8200  163.2877 C.3     1  UNL1        0.0768
      9 N         140.5854  145.0727  162.2130 N.3     1  UNL1       -0.2720
     10 C         142.0332  144.6812  162.1832 C.3     1  UNL1        0.0768
     11 C         142.8231  143.9403  163.2210 C.3     1  UNL1        0.0433
     12 C         139.6387  139.4984  171.2022 C.3     1  UNL1        0.0540
     13 C         140.5854  140.3532  170.4129 C.ar    1  UNL1        0.0804
     14 C         140.4342  140.7358  168.9703 C.ar    1  UNL1        0.0352
     15 C         141.6049  141.5945  168.5934 C.ar    1  UNL1        0.0791
     16 N         142.4796  141.7426  169.8029 N.ar    1  UNL1       -0.2492
     17 C         143.7596  142.5213  169.8753 C.3     1  UNL1        0.1537
     18 N         141.8495  140.9755  170.9273 N.ar    1  UNL1       -0.1736
     19 C         140.0871  145.8151  161.0086 C.3     1  UNL1        0.0730
     20 C         140.5534  145.4208  159.6385 C.3     1  UNL1        0.0294
     21 C         139.9025  144.2722  158.9264 C.3     1  UNL1        0.0666
     22 S         140.0834  142.8735  159.4372 S.3     1  UNL1       -0.0756
     23 C         139.2450  142.3774  160.5778 C.ar    1  UNL1        0.1933
     24 N         137.8294  142.7777  160.8709 N.ar    1  UNL1       -0.1220
     25 N         137.3844  142.0415  162.0997 N.ar    1  UNL1       -0.1250
     26 C         138.5251  141.1863  162.5661 C.ar    1  UNL1        0.2029
     27 N         139.6750  141.3938  161.6255 N.ar    1  UNL1       -0.2860
     28 C         141.0188  140.7337  161.7167 C.3     1  UNL1        0.1341
     29 C         138.5172  140.2822  163.7630 C.ar    1  UNL1        0.1964
     30 O         138.4151  140.7162  165.1951 O.2     1  UNL1       -0.4283
     31 C         138.4448  139.4875  166.0552 C.ar    1  UNL1        0.2849
     32 N         138.5654  138.2941  165.1545 N.ar    1  UNL1       -0.2085
     33 C         138.6101  138.7852  163.7378 C.ar    1  UNL1        0.1001
     34 C         138.7271  137.9296  162.5113 C.3     1  UNL1        0.0556
@<TRIPOS>BOND
     1    12    13    1
     2    13    14   ar
     3    14    15   ar
     4    15     1    1
     5     1     2   ar
     6     2     3   ar
     7     3     4   ar
     8     4     5   ar
     9     5     6   ar
    10     5     7    1
    11     7     8    1
    12     8     9    1
    13     9    19    1
    14    19    20    1
    15    20    21    1
    16    21    22    1
    17    22    23    1
    18    23    24   ar
    19    24    25   ar
    20    25    26   ar
    21    26    29    1
    22    29    30   ar
    23    30    31   ar
    24    31    32   ar
    25    32    33   ar
    26    33    34    1
    27    26    27   ar
    28    27    28    1
    29     9    10    1
    30    10    11    1
    31    15    16   ar
    32    16    17    1
    33    16    18   ar
    34    18    13   ar
    35     6     1   ar
    36    27    23   ar
    37    11     4    1
    38    33    29   ar
@<TRIPOS>MOLECULE
*****
 34 38 0 0 0
SMALL
GASTEIGER

@<TRIPOS>ATOM
      1 C         140.2774  142.9629  166.0580 C.ar    1  UNL1        0.0170
      2 C         139.2224  144.0291  166.0438 C.ar    1  UNL1        0.0011
      3 C         139.0224  144.8701  164.8179 C.ar    1  UNL1       -0.0045
      4 C         139.8775  144.6449  163.6062 C.ar    1  UNL1       -0.0247
      5 C         140.9324  143.5787  163.6204 C.ar    1  UNL1       -0.0246
      6 C         141.1324  142.7377  164.8462 C.ar    1  UNL1       -0.0030
      7 C         141.8860  143.1919  162.5290 C.3     1  UNL1        0.0433
      8 C         142.0199  143.7758  161.1537 C.3     1  UNL1        0.0768
      9 N         141.2335  144.8906  160.5304 N.3     1  UNL1       -0.2720
     10 C         140.1188  145.6970  161.1282 C.3     1  UNL1        0.0768
     11 C         139.5153  145.5876  162.4971 C.3     1  UNL1        0.0433
     12 C         141.7092  141.3918  170.8914 C.3     1  UNL1        0.0540
     13 C         141.1354  141.3997  169.5055 C.ar    1  UNL1        0.0804
     14 C         141.1620  142.5532  168.5468 C.ar    1  UNL1        0.0352
     15 C         140.4773  142.1219  167.2838 C.ar    1  UNL1        0.0791
     16 N         140.0276  140.7020  167.4619 N.ar    1  UNL1       -0.2492
     17 C         139.2991  139.8738  166.4454 C.3     1  UNL1        0.1537
     18 N         140.4344  140.2557  168.8349 N.ar    1  UNL1       -0.1736
     19 C         141.6117  145.2462  159.1231 C.3     1  UNL1        0.0730
     20 C         141.2355  144.3351  157.9923 C.3     1  UNL1        0.0294
     21 C         139.8025  144.2248  157.5630 C.3     1  UNL1        0.0666
     22 S         139.0397  142.9580  157.8143 S.3     1  UNL1       -0.0756
     23 C         138.9867  142.3759  159.1957 C.ar    1  UNL1        0.1933
     24 N         138.1787  142.9032  160.3442 N.ar    1  UNL1       -0.1220
     25 N         138.4250  142.0176  161.5296 N.ar    1  UNL1       -0.1250
     26 C         139.3852  140.9429  161.1136 C.ar    1  UNL1        0.2029
     27 N         139.7324  141.1644  159.6712 N.ar    1  UNL1       -0.2860
     28 C         140.6621  140.3221  158.8488 C.3     1  UNL1        0.1341
     29 C         139.9068  139.8404  161.9867 C.ar    1  UNL1        0.1964
     30 O         141.2291  139.8270  162.6946 O.2     1  UNL1       -0.4283
     31 C         141.3372  138.5359  163.4507 C.ar    1  UNL1        0.2849
     32 N         140.0816  137.7514  163.2101 N.ar    1  UNL1       -0.2085
     33 C         139.1975  138.5576  162.3053 C.ar    1  UNL1        0.1001
     34 C         137.8421  138.1521  161.8066 C.3     1  UNL1        0.0556
@<TRIPOS>BOND
     1    12    13    1
     2    13    14   ar
     3    14    15   ar
     4    15     1    1
     5     1     2   ar
     6     2     3   ar
     7     3     4   ar
     8     4     5   ar
     9     5     6   ar
    10     5     7    1
    11     7     8    1
    12     8     9    1
    13     9    19    1
    14    19    20    1
    15    20    21    1
    16    21    22    1
    17    22    23    1
    18    23    24   ar
    19    24    25   ar
    20    25    26   ar
    21    26    29    1
    22    29    30   ar
    23    30    31   ar
    24    31    32   ar
    25    32    33   ar
    26    33    34    1
    27    26    27   ar
    28    27    28    1
    29     9    10    1
    30    10    11    1
    31    15    16   ar
    32    16    17    1
    33    16    18   ar
    34    18    13   ar
    35     6     1   ar
    36    27    23   ar
    37    11     4    1
    38    33    29   ar
@<TRIPOS>MOLECULE
*****
 34 38 0 0 0
SMALL
GASTEIGER

@<TRIPOS>ATOM
      1 C         141.8484  140.3487  167.2022 C.ar    1  UNL1        0.0170
      2 C         142.7205  139.1496  166.9749 C.ar    1  UNL1        0.0011
      3 C         143.5874  139.0734  165.7531 C.ar    1  UNL1       -0.0045
      4 C         143.5821  140.1964  164.7586 C.ar    1  UNL1       -0.0247
      5 C         142.7100  141.3953  164.9859 C.ar    1  UNL1       -0.0246
      6 C         141.8431  141.4716  166.2076 C.ar    1  UNL1       -0.0030
      7 C         142.5551  142.6155  164.1272 C.3     1  UNL1        0.0433
      8 C         143.2342  142.9379  162.8290 C.3     1  UNL1        0.0768
      9 N         144.2357  142.1198  162.0692 N.3     1  UNL1       -0.2720
     10 C         144.8056  140.7772  162.4195 C.3     1  UNL1        0.0768
     11 C         144.5148  139.9212  163.6165 C.3     1  UNL1        0.0433
     12 C         137.7139  139.9330  170.4601 C.3     1  UNL1        0.0540
     13 C         139.0811  140.2337  169.9215 C.ar    1  UNL1        0.0804
     14 C         139.5553  139.9708  168.5229 C.ar    1  UNL1        0.0352
     15 C         140.9816  140.4248  168.4240 C.ar    1  UNL1        0.0791
     16 N         141.3888  140.9682  169.7615 N.ar    1  UNL1       -0.2492
     17 C         142.7344  141.5310  170.1119 C.3     1  UNL1        0.1537
     18 N         140.2143  140.8502  170.6869 N.ar    1  UNL1       -0.1736
     19 C         144.7331  142.7241  160.7896 C.3     1  UNL1        0.0730
     20 C         144.2648  142.1814  159.4719 C.3     1  UNL1        0.0294
     21 C         143.7200  143.1113  158.4286 C.3     1  UNL1        0.0666
     22 S         142.2535  143.1083  158.1134 S.3     1  UNL1       -0.0756
     23 C         141.2626  143.5480  159.1502 C.ar    1  UNL1        0.1933
     24 N         140.7544  144.9454  159.3473 N.ar    1  UNL1       -0.1220
     25 N         139.7837  144.9286  160.4908 N.ar    1  UNL1       -0.1250
     26 C         139.6920  143.5207  161.0003 C.ar    1  UNL1        0.2029
     27 N         140.6061  142.6674  160.1717 N.ar    1  UNL1       -0.2860
     28 C         140.8250  141.1926  160.3360 C.3     1  UNL1        0.1341
     29 C         138.8365  143.0490  162.1385 C.ar    1  UNL1        0.1964
     30 O         137.8623  141.9092  162.0958 O.2     1  UNL1       -0.4283
     31 C         137.2287  141.7900  163.4502 C.ar    1  UNL1        0.2849
     32 N         137.8113  142.8561  164.3300 N.ar    1  UNL1       -0.2085
     33 C         138.8050  143.6342  163.5193 C.ar    1  UNL1        0.1001
     34 C         139.6234  144.7940  164.0043 C.3     1  UNL1        0.0556
@<TRIPOS>BOND
     1    12    13    1
     2    13    14   ar
     3    14    15   ar
     4    15     1    1
     5     1     2   ar
     6     2     3   ar
     7     3     4   ar
     8     4     5   ar
     9     5     6   ar
    10     5     7    1
    11     7     8    1
    12     8     9    1
    13     9    19    1
    14    19    20    1
    15    20    21    1
    16    21    22    1
    17    22    23    1
    18    23    24   ar
    19    24    25   ar
    20    25    26   ar
    21    26    29    1
    22    29    30   ar
    23    30    31   ar
    24    31    32   ar
    25    32    33   ar
    26    33    34    1
    27    26    27   ar
    28    27    28    1
    29     9    10    1
    30    10    11    1
    31    15    16   ar
    32    16    17    1
    33    16    18   ar
    34    18    13   ar
    35     6     1   ar
    36    27    23   ar
    37    11     4    1
    38    33    29   ar
@<TRIPOS>MOLECULE
*****
 34 38 0 0 0
SMALL
GASTEIGER

@<TRIPOS>ATOM
      1 C         138.4493  140.3460  160.0702 C.ar    1  UNL1        0.0170
      2 C         139.0107  138.9577  159.9835 C.ar    1  UNL1        0.0011
      3 C         139.3317  138.1990  161.2371 C.ar    1  UNL1       -0.0045
      4 C         139.0914  138.8286  162.5772 C.ar    1  UNL1       -0.0247
      5 C         138.5301  140.2168  162.6637 C.ar    1  UNL1       -0.0246
      6 C         138.2090  140.9756  161.4103 C.ar    1  UNL1       -0.0030
      7 C         138.2165  141.0242  163.8885 C.3     1  UNL1        0.0433
      8 C         138.3869  140.6425  165.3292 C.3     1  UNL1        0.0768
      9 N         138.9129  139.3594  165.9007 N.3     1  UNL1       -0.2720
     10 C         139.3984  138.1409  165.1730 C.3     1  UNL1        0.0768
     11 C         139.4779  137.9047  163.6939 C.3     1  UNL1        0.0433
     12 C         136.3878  141.6781  155.3951 C.3     1  UNL1        0.0540
     13 C         137.1807  141.7170  156.6677 C.ar    1  UNL1        0.0804
     14 C         137.2056  140.6522  157.7240 C.ar    1  UNL1        0.0352
     15 C         138.1283  141.1047  158.8167 C.ar    1  UNL1        0.0791
     16 N         138.6736  142.4492  158.4357 N.ar    1  UNL1       -0.2492
     17 C         139.6356  143.2710  159.2414 C.3     1  UNL1        0.1537
     18 N         138.0879  142.8276  157.1077 N.ar    1  UNL1       -0.1736
     19 C         138.9595  139.2848  167.3982 C.3     1  UNL1        0.0730
     20 C         139.4815  140.4462  168.1911 C.3     1  UNL1        0.0294
     21 C         140.6070  140.2461  169.1624 C.3     1  UNL1        0.0666
     22 S         142.0200  140.5185  168.7393 S.3     1  UNL1       -0.0756
     23 C         142.6320  139.7323  167.6180 C.ar    1  UNL1        0.1933
     24 N         143.3849  138.4422  167.7540 N.ar    1  UNL1       -0.1220
     25 N         143.8168  138.0107  166.3839 N.ar    1  UNL1       -0.1250
     26 C         143.3307  139.0343  165.4010 C.ar    1  UNL1        0.2029
     27 N         142.5985  140.0984  166.1637 N.ar    1  UNL1       -0.2860
     28 C         141.9471  141.3147  165.5754 C.3     1  UNL1        0.1341
     29 C         143.5401  138.9999  163.9161 C.ar    1  UNL1        0.1964
     30 O         142.8401  138.0933  162.9477 O.2     1  UNL1       -0.4283
     31 C         143.3537  138.3992  161.5719 C.ar    1  UNL1        0.2849
     32 N         144.3712  139.4949  161.6901 N.ar    1  UNL1       -0.2085
     33 C         144.4864  139.8662  163.1389 C.ar    1  UNL1        0.1001
     34 C         145.3895  140.9190  163.7100 C.3     1  UNL1        0.0556
@<TRIPOS>BOND
     1    12    13    1
     2    13    14   ar
     3    14    15   ar
     4    15     1    1
     5     1     2   ar
     6     2     3   ar
     7     3     4   ar
     8     4     5   ar
     9     5     6   ar
    10     5     7    1
    11     7     8    1
    12     8     9    1
    13     9    19    1
    14    19    20    1
    15    20    21    1
    16    21    22    1
    17    22    23    1
    18    23    24   ar
    19    24    25   ar
    20    25    26   ar
    21    26    29    1
    22    29    30   ar
    23    30    31   ar
    24    31    32   ar
    25    32    33   ar
    26    33    34    1
    27    26    27   ar
    28    27    28    1
    29     9    10    1
    30    10    11    1
    31    15    16   ar
    32    16    17    1
    33    16    18   ar
    34    18    13   ar
    35     6     1   ar
    36    27    23   ar
    37    11     4    1
    38    33    29   ar
@<TRIPOS>MOLECULE
*****
 34 38 0 0 0
SMALL
GASTEIGER

@<TRIPOS>ATOM
      1 C         140.2938  141.1525  166.6391 C.ar    1  UNL1        0.0170
      2 C         139.2442  140.0813  166.6076 C.ar    1  UNL1        0.0011
      3 C         138.4538  139.8424  165.3552 C.ar    1  UNL1       -0.0045
      4 C         138.7130  140.6748  164.1345 C.ar    1  UNL1       -0.0247
      5 C         139.7626  141.7459  164.1662 C.ar    1  UNL1       -0.0246
      6 C         140.5530  141.9848  165.4184 C.ar    1  UNL1       -0.0030
      7 C         140.1772  142.6816  163.0695 C.3     1  UNL1        0.0433
      8 C         139.6446  142.7773  161.6705 C.3     1  UNL1        0.0768
      9 N         138.5660  141.9609  161.0226 N.3     1  UNL1       -0.2720
     10 C         137.7533  140.8472  161.6136 C.3     1  UNL1        0.0768
     11 C         137.8188  140.2748  162.9986 C.3     1  UNL1        0.0433
     12 C         144.1958  142.4851  169.9374 C.3     1  UNL1        0.0540
     13 C         142.8777  142.0038  169.4075 C.ar    1  UNL1        0.0804
     14 C         142.4829  141.9282  167.9623 C.ar    1  UNL1        0.0352
     15 C         141.0842  141.3913  167.8914 C.ar    1  UNL1        0.0791
     16 N         140.6144  141.1350  169.2928 N.ar    1  UNL1       -0.2492
     17 C         139.2719  140.5950  169.6878 C.3     1  UNL1        0.1537
     18 N         141.7229  141.5136  170.2297 N.ar    1  UNL1       -0.1736
     19 C         138.2593  142.3035  159.5948 C.3     1  UNL1        0.0730
     20 C         139.2005  141.8853  158.5043 C.3     1  UNL1        0.0294
     21 C         139.0622  140.5320  157.8721 C.3     1  UNL1        0.0666
     22 S         140.0536  139.4518  158.1881 S.3     1  UNL1       -0.0756
     23 C         140.2711  139.0259  159.6099 C.ar    1  UNL1        0.1933
     24 N         139.5055  137.9614  160.3383 N.ar    1  UNL1       -0.1220
     25 N         140.0535  137.8672  161.7314 N.ar    1  UNL1       -0.1250
     26 C         141.1579  138.8736  161.8639 C.ar    1  UNL1        0.2029
     27 N         141.2924  139.5897  160.5527 N.ar    1  UNL1       -0.2860
     28 C         142.2755  140.6785  160.2395 C.3     1  UNL1        0.1341
     29 C         141.9830  139.1206  163.0921 C.ar    1  UNL1        0.1964
     30 O         143.0125  140.1983  163.2605 O.2     1  UNL1       -0.4283
     31 C         143.5892  140.0770  164.6400 C.ar    1  UNL1        0.2849
     32 N         142.9160  138.9243  165.3240 N.ar    1  UNL1       -0.2085
     33 C         141.9232  138.3332  164.3674 C.ar    1  UNL1        0.1001
     34 C         141.0280  137.1605  164.6385 C.3     1  UNL1        0.0556
@<TRIPOS>BOND
     1    12    13    1
     2    13    14   ar
     3    14    15   ar
     4    15     1    1
     5     1     2   ar
     6     2     3   ar
     7     3     4   ar
     8     4     5   ar
     9     5     6   ar
    10     5     7    1
    11     7     8    1
    12     8     9    1
    13     9    19    1
    14    19    20    1
    15    20    21    1
    16    21    22    1
    17    22    23    1
    18    23    24   ar
    19    24    25   ar
    20    25    26   ar
    21    26    29    1
    22    29    30   ar
    23    30    31   ar
    24    31    32   ar
    25    32    33   ar
    26    33    34    1
    27    26    27   ar
    28    27    28    1
    29     9    10    1
    30    10    11    1
    31    15    16   ar
    32    16    17    1
    33    16    18   ar
    34    18    13   ar
    35     6     1   ar
    36    27    23   ar
    37    11     4    1
    38    33    29   ar
@<TRIPOS>MOLECULE
*****
 34 38 0 0 0
SMALL
GASTEIGER

@<TRIPOS>ATOM
      1 C         140.2240  142.9381  165.8443 C.ar    1  UNL1        0.0170
      2 C         139.2845  144.0780  165.5838 C.ar    1  UNL1        0.0011
      3 C         139.2845  144.7596  164.2475 C.ar    1  UNL1       -0.0045
      4 C         140.2242  144.3012  163.1719 C.ar    1  UNL1       -0.0247
      5 C         141.1637  143.1614  163.4325 C.ar    1  UNL1       -0.0246
      6 C         141.1637  142.4798  164.7686 C.ar    1  UNL1       -0.0030
      7 C         142.1737  142.5513  162.5062 C.3     1  UNL1        0.0433
      8 C         142.4935  142.9307  161.0906 C.3     1  UNL1        0.0768
      9 N         141.8824  144.0135  160.2517 N.3     1  UNL1       -0.2720
     10 C         140.8005  144.9847  160.6211 C.3     1  UNL1        0.0768
     11 C         140.0625  145.1127  161.9207 C.3     1  UNL1        0.0433
     12 C         140.8373  142.0031  171.0048 C.3     1  UNL1        0.0540
     13 C         140.5058  141.8268  169.5526 C.ar    1  UNL1        0.0804
     14 C         140.6803  142.8577  168.4769 C.ar    1  UNL1        0.0352
     15 C         140.2239  142.2566  167.1806 C.ar    1  UNL1        0.0791
     16 N         139.7674  140.8544  167.4551 N.ar    1  UNL1       -0.2492
     17 C         139.2308  139.8875  166.4415 C.3     1  UNL1        0.1537
     18 N         139.9416  140.5888  168.9210 N.ar    1  UNL1       -0.1736
     19 C         142.4250  144.1424  158.8592 C.3     1  UNL1        0.0730
     20 C         141.7836  143.3892  157.7316 C.3     1  UNL1        0.0294
     21 C         141.1878  142.0346  157.9775 C.3     1  UNL1        0.0666
     22 S         142.0070  140.8008  157.7402 S.3     1  UNL1       -0.0756
     23 C         142.4918  139.9872  158.9035 C.ar    1  UNL1        0.1933
     24 N         143.8585  139.3871  159.0511 N.ar    1  UNL1       -0.1220
     25 N         143.9064  138.6599  160.3622 N.ar    1  UNL1       -0.1250
     26 C         142.5691  138.8105  161.0248 C.ar    1  UNL1        0.2029
     27 N         141.6948  139.6309  160.1233 N.ar    1  UNL1       -0.2860
     28 C         140.2732  140.0255  160.3941 C.3     1  UNL1        0.1341
     29 C         142.1753  138.2409  162.3554 C.ar    1  UNL1        0.1964
     30 O         141.1394  137.1816  162.5892 O.2     1  UNL1       -0.4283
     31 C         141.0720  136.9165  164.0641 C.ar    1  UNL1        0.2849
     32 N         142.0664  137.8120  164.7418 N.ar    1  UNL1       -0.2085
     33 C         142.7482  138.6306  163.6857 C.ar    1  UNL1        0.1001
     34 C         143.8156  139.6583  163.9192 C.3     1  UNL1        0.0556
@<TRIPOS>BOND
     1    12    13    1
     2    13    14   ar
     3    14    15   ar
     4    15     1    1
     5     1     2   ar
     6     2     3   ar
     7     3     4   ar
     8     4     5   ar
     9     5     6   ar
    10     5     7    1
    11     7     8    1
    12     8     9    1
    13     9    19    1
    14    19    20    1
    15    20    21    1
    16    21    22    1
    17    22    23    1
    18    23    24   ar
    19    24    25   ar
    20    25    26   ar
    21    26    29    1
    22    29    30   ar
    23    30    31   ar
    24    31    32   ar
    25    32    33   ar
    26    33    34    1
    27    26    27   ar
    28    27    28    1
    29     9    10    1
    30    10    11    1
    31    15    16   ar
    32    16    17    1
    33    16    18   ar
    34    18    13   ar
    35     6     1   ar
    36    27    23   ar
    37    11     4    1
    38    33    29   ar
@<TRIPOS>MOLECULE
*****
 34 38 0 0 0
SMALL
GASTEIGER

@<TRIPOS>ATOM
      1 C         140.4946  141.2920  166.9335 C.ar    1  UNL1        0.0170
      2 C         139.2392  140.6883  166.3770 C.ar    1  UNL1        0.0011
      3 C         138.6462  141.2271  165.1089 C.ar    1  UNL1       -0.0045
      4 C         139.3085  142.3694  164.3972 C.ar    1  UNL1       -0.0247
      5 C         140.5638  142.9730  164.9537 C.ar    1  UNL1       -0.0246
      6 C         141.1569  142.4344  166.2218 C.ar    1  UNL1       -0.0030
      7 C         141.3779  144.1082  164.4071 C.3     1  UNL1        0.0433
      8 C         141.1374  144.9201  163.1688 C.3     1  UNL1        0.0768
      9 N         140.0238  144.7973  162.1716 N.3     1  UNL1       -0.2720
     10 C         138.8754  143.8324  162.1661 C.3     1  UNL1        0.0768
     11 C         138.5570  142.7519  163.1567 C.3     1  UNL1        0.0433
     12 C         143.0595  138.2011  170.3611 C.3     1  UNL1        0.0540
     13 C         142.2666  139.3325  169.7771 C.ar    1  UNL1        0.0804
     14 C         141.8672  139.4791  168.3386 C.ar    1  UNL1        0.0352
     15 C         141.0876  140.7533  168.2015 C.ar    1  UNL1        0.0791
     16 N         141.0051  141.3941  169.5553 N.ar    1  UNL1       -0.2492
     17 C         140.3151  142.6862  169.8785 C.3     1  UNL1        0.1537
     18 N         141.7337  140.5161  170.5289 N.ar    1  UNL1       -0.1736
     19 C         140.0638  145.7679  161.0286 C.3     1  UNL1        0.0730
     20 C         140.8323  145.4311  159.7852 C.3     1  UNL1        0.0294
     21 C         140.2908  144.4187  158.8198 C.3     1  UNL1        0.0666
     22 S         140.9623  143.0852  158.6763 S.3     1  UNL1       -0.0756
     23 C         140.7789  142.0356  159.7321 C.ar    1  UNL1        0.1933
     24 N         139.6419  141.0609  159.8182 N.ar    1  UNL1       -0.1220
     25 N         139.8605  140.1993  161.0265 N.ar    1  UNL1       -0.1250
     26 C         141.1326  140.6415  161.6870 C.ar    1  UNL1        0.2029
     27 N         141.7002  141.7764  160.8871 N.ar    1  UNL1       -0.2860
     28 C         142.9667  142.5212  161.1891 C.3     1  UNL1        0.1341
     29 C         141.7319  140.0522  162.9294 C.ar    1  UNL1        0.1964
     30 O         142.9899  140.5114  163.6049 O.2     1  UNL1       -0.4283
     31 C         143.2140  139.6433  164.8075 C.ar    1  UNL1        0.2849
     32 N         142.0943  138.6475  164.8753 N.ar    1  UNL1       -0.2085
     33 C         141.1783  138.9002  163.7146 C.ar    1  UNL1        0.1001
     34 C         139.9282  138.1351  163.3951 C.3     1  UNL1        0.0556
@<TRIPOS>BOND
     1    12    13    1
     2    13    14   ar
     3    14    15   ar
     4    15     1    1
     5     1     2   ar
     6     2     3   ar
     7     3     4   ar
     8     4     5   ar
     9     5     6   ar
    10     5     7    1
    11     7     8    1
    12     8     9    1
    13     9    19    1
    14    19    20    1
    15    20    21    1
    16    21    22    1
    17    22    23    1
    18    23    24   ar
    19    24    25   ar
    20    25    26   ar
    21    26    29    1
    22    29    30   ar
    23    30    31   ar
    24    31    32   ar
    25    32    33   ar
    26    33    34    1
    27    26    27   ar
    28    27    28    1
    29     9    10    1
    30    10    11    1
    31    15    16   ar
    32    16    17    1
    33    16    18   ar
    34    18    13   ar
    35     6     1   ar
    36    27    23   ar
    37    11     4    1
    38    33    29   ar
@<TRIPOS>MOLECULE
*****
 34 38 0 0 0
SMALL
GASTEIGER

@<TRIPOS>ATOM
      1 C         140.9853  140.9048  167.3653 C.ar    1  UNL1        0.0170
      2 C         139.8150  139.9899  167.1573 C.ar    1  UNL1        0.0011
      3 C         139.7908  139.0583  165.9819 C.ar    1  UNL1       -0.0045
      4 C         140.9371  139.0416  165.0144 C.ar    1  UNL1       -0.0247
      5 C         142.1074  139.9565  165.2225 C.ar    1  UNL1       -0.0246
      6 C         142.1315  140.8881  166.3978 C.ar    1  UNL1       -0.0030
      7 C         143.3436  140.0989  164.3849 C.3     1  UNL1        0.0433
      8 C         143.7148  139.3615  163.1324 C.3     1  UNL1        0.0768
      9 N         142.9415  138.2998  162.4083 N.3     1  UNL1       -0.2720
     10 C         141.6059  137.7130  162.7577 C.3     1  UNL1        0.0768
     11 C         140.7139  138.0432  163.9175 C.3     1  UNL1        0.0433
     12 C         140.0869  145.0560  170.5023 C.3     1  UNL1        0.0540
     13 C         140.5965  143.7445  169.9827 C.ar    1  UNL1        0.0804
     14 C         140.2953  143.1519  168.6379 C.ar    1  UNL1        0.0352
     15 C         141.0094  141.8363  168.5407 C.ar    1  UNL1        0.0791
     16 N         141.7518  141.6158  169.8253 N.ar    1  UNL1       -0.2492
     17 C         142.6004  140.4251  170.1601 C.3     1  UNL1        0.1537
     18 N         141.4966  142.7951  170.7164 N.ar    1  UNL1       -0.1736
     19 C         143.5893  137.7523  161.1711 C.3     1  UNL1        0.0730
     20 C         143.1522  138.2343  159.8195 C.3     1  UNL1        0.0294
     21 C         143.6096  139.5711  159.3159 C.3     1  UNL1        0.0666
     22 S         142.6047  140.6434  159.0159 S.3     1  UNL1       -0.0756
     23 C         141.5232  140.9564  160.0071 C.ar    1  UNL1        0.1933
     24 N         140.1905  140.2746  160.1025 N.ar    1  UNL1       -0.1220
     25 N         139.4282  140.9028  161.2314 N.ar    1  UNL1       -0.1250
     26 C         140.2898  141.9728  161.8336 C.ar    1  UNL1        0.2029
     27 N         141.5846  142.0059  161.0770 N.ar    1  UNL1       -0.2860
     28 C         142.7382  142.9269  161.3435 C.3     1  UNL1        0.1341
     29 C         139.9214  142.8549  162.9895 C.ar    1  UNL1        0.1964
     30 O         139.6955  142.4074  164.4032 O.2     1  UNL1       -0.4283
     31 C         139.3486  143.6153  165.2221 C.ar    1  UNL1        0.2849
     32 N         139.3601  144.8095  164.3145 N.ar    1  UNL1       -0.2085
     33 C         139.7141  144.3395  162.9347 C.ar    1  UNL1        0.1001
     34 C         139.8388  145.2028  161.7143 C.3     1  UNL1        0.0556
@<TRIPOS>BOND
     1    12    13    1
     2    13    14   ar
     3    14    15   ar
     4    15     1    1
     5     1     2   ar
     6     2     3   ar
     7     3     4   ar
     8     4     5   ar
     9     5     6   ar
    10     5     7    1
    11     7     8    1
    12     8     9    1
    13     9    19    1
    14    19    20    1
    15    20    21    1
    16    21    22    1
    17    22    23    1
    18    23    24   ar
    19    24    25   ar
    20    25    26   ar
    21    26    29    1
    22    29    30   ar
    23    30    31   ar
    24    31    32   ar
    25    32    33   ar
    26    33    34    1
    27    26    27   ar
    28    27    28    1
    29     9    10    1
    30    10    11    1
    31    15    16   ar
    32    16    17    1
    33    16    18   ar
    34    18    13   ar
    35     6     1   ar
    36    27    23   ar
    37    11     4    1
    38    33    29   ar
@<TRIPOS>MOLECULE
*****
 34 38 0 0 0
SMALL
GASTEIGER

@<TRIPOS>ATOM
      1 C         141.7239  142.0671  160.7304 C.ar    1  UNL1        0.0170
      2 C         141.0547  140.7602  160.4238 C.ar    1  UNL1        0.0011
      3 C         140.9970  139.6842  161.4674 C.ar    1  UNL1       -0.0045
      4 C         141.6084  139.9152  162.8175 C.ar    1  UNL1       -0.0247
      5 C         142.2776  141.2221  163.1240 C.ar    1  UNL1       -0.0246
      6 C         142.3354  142.2981  162.0806 C.ar    1  UNL1       -0.0030
      7 C         142.9448  141.6556  164.3957 C.3     1  UNL1        0.0433
      8 C         143.1075  140.8891  165.6748 C.3     1  UNL1        0.0768
      9 N         142.6433  139.5000  165.9982 N.3     1  UNL1       -0.2720
     10 C         141.9016  138.5341  165.1224 C.3     1  UNL1        0.0768
     11 C         141.4411  138.7189  163.7068 C.3     1  UNL1        0.0433
     12 C         140.3852  146.0998  157.5959 C.3     1  UNL1        0.0540
     13 C         141.1664  144.9967  158.2461 C.ar    1  UNL1        0.0804
     14 C         140.6761  144.0958  159.3407 C.ar    1  UNL1        0.0352
     15 C         141.7817  143.1431  159.6869 C.ar    1  UNL1        0.0791
     16 N         142.9553  143.4552  158.8064 N.ar    1  UNL1       -0.2492
     17 C         144.2771  142.7461  158.8148 C.3     1  UNL1        0.1537
     18 N         142.5750  144.6007  157.9159 N.ar    1  UNL1       -0.1736
     19 C         142.9629  139.0121  167.3801 C.3     1  UNL1        0.0730
     20 C         142.6759  139.8823  168.5678 C.3     1  UNL1        0.0294
     21 C         141.4491  139.6397  169.3963 C.3     1  UNL1        0.0666
     22 S         140.2258  140.4826  169.1895 S.3     1  UNL1       -0.0756
     23 C         140.0261  141.2091  167.8924 C.ar    1  UNL1        0.1933
     24 N         140.5025  142.5958  167.5762 N.ar    1  UNL1       -0.1220
     25 N         140.0858  142.9202  166.1722 N.ar    1  UNL1       -0.1250
     26 C         139.3517  141.7340  165.6208 C.ar    1  UNL1        0.2029
     27 N         139.3148  140.6764  166.6840 N.ar    1  UNL1       -0.2860
     28 C         138.6784  139.3238  166.5603 C.3     1  UNL1        0.1341
     29 C         138.7587  141.6245  164.2474 C.ar    1  UNL1        0.1964
     30 O         138.0566  140.4251  163.6832 O.2     1  UNL1       -0.4283
     31 C         137.6276  140.7545  162.2841 C.ar    1  UNL1        0.2849
     32 N         138.0646  142.1576  161.9836 N.ar    1  UNL1       -0.2085
     33 C         138.7636  142.6953  163.1970 C.ar    1  UNL1        0.1001
     34 C         139.3625  144.0636  163.3355 C.3     1  UNL1        0.0556
@<TRIPOS>BOND
     1    12    13    1
     2    13    14   ar
     3    14    15   ar
     4    15     1    1
     5     1     2   ar
     6     2     3   ar
     7     3     4   ar
     8     4     5   ar
     9     5     6   ar
    10     5     7    1
    11     7     8    1
    12     8     9    1
    13     9    19    1
    14    19    20    1
    15    20    21    1
    16    21    22    1
    17    22    23    1
    18    23    24   ar
    19    24    25   ar
    20    25    26   ar
    21    26    29    1
    22    29    30   ar
    23    30    31   ar
    24    31    32   ar
    25    32    33   ar
    26    33    34    1
    27    26    27   ar
    28    27    28    1
    29     9    10    1
    30    10    11    1
    31    15    16   ar
    32    16    17    1
    33    16    18   ar
    34    18    13   ar
    35     6     1   ar
    36    27    23   ar
    37    11     4    1
    38    33    29   ar
