@<TRIPOS>MOLECULE
*****
 47 51 0 0 0
SMALL
GASTEIGER

@<TRIPOS>ATOM
      1 C         138.8687  145.6065  162.4136 C.3     1  UNL1        0.2054
      2 O         138.8859  145.2101  163.8602 O.3     1  UNL1       -0.4755
      3 C         139.2114  143.7978  164.2470 C.ar    1  UNL1        0.1386
      4 C         139.2154  142.7171  163.2068 C.ar    1  UNL1        0.0369
      5 C         139.5409  141.3049  163.5937 C.ar    1  UNL1        0.0031
      6 C         139.8626  140.9734  165.0208 C.ar    1  UNL1        0.0002
      7 C         139.8587  142.0541  166.0610 C.ar    1  UNL1        0.0031
      8 C         139.5331  143.4663  165.6741 C.ar    1  UNL1        0.0369
      9 C         140.1803  141.7226  167.4882 C.ar    1  UNL1        0.0033
     10 C         139.6627  140.4540  168.0984 C.ar    1  UNL1        0.0033
     11 C         139.9843  140.1224  169.5255 C.ar    1  UNL1        0.0402
     12 C         140.8237  141.0596  170.3424 C.ar    1  UNL1        0.1764
     13 C         141.3414  142.3283  169.7321 C.ar    1  UNL1        0.1764
     14 C         141.0197  142.6598  168.3050 C.ar    1  UNL1        0.0402
     15 O         142.1388  143.0530  170.7756 O.3     1  UNL1       -0.4346
     16 C         142.1140  142.2321  172.0308 C.3     1  UNL1        0.4294
     17 O         141.3012  141.0002  171.7631 O.3     1  UNL1       -0.4346
     18 C         139.5449  140.2241  162.5535 C.ar    1  UNL1        0.0023
     19 C         138.5217  140.2352  161.4567 C.ar    1  UNL1        0.0001
     20 C         138.5256  139.1545  160.4165 C.ar    1  UNL1        0.0023
     21 C         139.5526  138.0627  160.4731 C.ar    1  UNL1        0.0296
     22 C         140.5759  138.0517  161.5699 C.ar    1  UNL1        0.1401
     23 F         141.6029  136.9600  161.6265 F       1  UNL1       -0.2042
     24 C         140.5719  139.1325  162.6101 C.ar    1  UNL1        0.0296
     25 C         140.1555  145.9031  161.7020 C.3     1  UNL1        0.0473
     26 C         140.2602  145.6888  160.2211 C.3     1  UNL1        0.0038
     27 C         141.5168  145.1191  159.6327 C.3     1  UNL1        0.0005
     28 C         141.5569  143.6850  159.1949 C.3     1  UNL1        0.0047
     29 C         141.2584  142.5921  160.1780 C.3     1  UNL1        0.0261
     30 C         144.2503  140.4961  161.7288 C.ar    1  UNL1        0.1342
     31 C         144.2389  139.2866  160.8415 C.ar    1  UNL1        0.0365
     32 C         143.2340  139.1791  159.7331 C.ar    1  UNL1        0.0028
     33 C         142.2405  140.2809  159.5119 C.ar    1  UNL1       -0.0044
     34 C         142.2519  141.4903  160.3992 C.ar    1  UNL1       -0.0232
     35 C         143.2568  141.5979  161.5076 C.ar    1  UNL1        0.0082
     36 C         143.2681  142.8073  162.3948 C.3     1  UNL1        0.0350
     37 C         142.7929  142.7011  163.8136 C.3     1  UNL1        0.0465
     38 C         143.5715  143.3551  164.9163 C.2     1  UNL1        0.0507
     39 O         144.1306  144.7337  164.7240 O.co2   1  UNL1       -0.5492
     40 O         143.7909  142.6307  166.2113 O.co2   1  UNL1       -0.5492
     41 O         145.2552  140.6037  162.8372 O.3     1  UNL1       -0.4758
     42 C         145.0464  139.8462  164.1150 C.3     1  UNL1        0.2058
     43 C         143.7706  139.0897  164.3385 C.3     1  UNL1        0.0532
     44 C         143.0002  139.2780  165.6117 C.3     1  UNL1        0.0455
     45 O         144.4163  137.4639  166.8175 O.co2   1  UNL1       -0.5492
     46 C         143.4755  138.6307  166.8786 C.2     1  UNL1        0.0505
     47 O         143.0100  139.1500  168.2066 O.co2   1  UNL1       -0.5492
@<TRIPOS>UNITY_ATOM_ATTR
39 1
charge -1
45 1
charge -1
@<TRIPOS>BOND
     1    45    46   ar
     2    46    47   ar
     3    46    44    1
     4    44    43    1
     5    43    42    1
     6    42    41    1
     7    41    30    1
     8    30    31   ar
     9    31    32   ar
    10    32    33   ar
    11    33    34   ar
    12    34    29    1
    13    29    28    1
    14    28    27    1
    15    27    26    1
    16    26    25    1
    17    25     1    1
    18     1     2    1
    19     2     3    1
    20     3     4   ar
    21     4     5   ar
    22     5    18    1
    23    18    19   ar
    24    19    20   ar
    25    20    21   ar
    26    21    22   ar
    27    22    23    1
    28    22    24   ar
    29     5     6   ar
    30     6     7   ar
    31     7     9    1
    32     9    10   ar
    33    10    11   ar
    34    11    12   ar
    35    12    13   ar
    36    13    14   ar
    37    13    15    1
    38    15    16    1
    39    16    17    1
    40     7     8   ar
    41    34    35   ar
    42    35    36    1
    43    36    37    1
    44    37    38    1
    45    38    39   ar
    46    38    40   ar
    47    35    30   ar
    48     8     3   ar
    49    24    18   ar
    50    14     9   ar
    51    17    12    1
@<TRIPOS>MOLECULE
*****
 47 51 0 0 0
SMALL
GASTEIGER

@<TRIPOS>ATOM
      1 C         138.3996  139.1180  165.7208 C.3     1  UNL1        0.2054
      2 O         137.7588  140.1318  164.8199 O.3     1  UNL1       -0.4755
      3 C         138.5962  140.9026  163.8429 C.ar    1  UNL1        0.1386
      4 C         139.8058  141.6512  164.3189 C.ar    1  UNL1        0.0369
      5 C         140.6433  142.4220  163.3419 C.ar    1  UNL1        0.0031
      6 C         140.2711  142.4442  161.8889 C.ar    1  UNL1        0.0002
      7 C         139.0616  141.6956  161.4130 C.ar    1  UNL1        0.0031
      8 C         138.2241  140.9248  162.3900 C.ar    1  UNL1        0.0369
      9 C         138.6894  141.7179  159.9600 C.ar    1  UNL1        0.0033
     10 C         137.9939  140.5394  159.3459 C.ar    1  UNL1        0.0033
     11 C         137.6217  140.5616  157.8929 C.ar    1  UNL1        0.0402
     12 C         137.9451  141.7623  157.0542 C.ar    1  UNL1        0.1764
     13 C         138.6407  142.9409  157.6683 C.ar    1  UNL1        0.1764
     14 C         139.0128  142.9187  159.1212 C.ar    1  UNL1        0.0402
     15 O         138.8289  143.9767  156.5998 O.3     1  UNL1       -0.4346
     16 C         138.2496  143.4382  155.3252 C.3     1  UNL1        0.4294
     17 O         137.7034  142.0697  155.6060 O.3     1  UNL1       -0.4346
     18 C         141.8529  143.1707  163.8177 C.ar    1  UNL1        0.0023
     19 C         142.4365  144.2659  162.9752 C.ar    1  UNL1        0.0001
     20 C         143.6461  145.0146  163.4510 C.ar    1  UNL1        0.0023
     21 C         144.2721  144.6680  164.7693 C.ar    1  UNL1        0.0296
     22 C         143.6885  143.5726  165.6119 C.ar    1  UNL1        0.1401
     23 F         144.3145  143.2260  166.9301 F       1  UNL1       -0.2042
     24 C         142.4789  142.8241  165.1360 C.ar    1  UNL1        0.0296
     25 C         139.0353  139.5538  167.0077 C.3     1  UNL1        0.0473
     26 C         140.5085  139.8308  167.0603 C.3     1  UNL1        0.0038
     27 C         141.4334  139.1570  166.0905 C.3     1  UNL1        0.0005
     28 C         142.9147  139.3687  166.1961 C.3     1  UNL1        0.0047
     29 C         143.8256  138.8423  165.1269 C.3     1  UNL1        0.0261
     30 C         144.1829  140.3767  161.4845 C.ar    1  UNL1        0.1342
     31 C         145.1149  141.5219  161.7495 C.ar    1  UNL1        0.0365
     32 C         145.6170  141.7738  163.1403 C.ar    1  UNL1        0.0028
     33 C         145.1873  140.8806  164.2661 C.ar    1  UNL1       -0.0044
     34 C         144.2554  139.7355  164.0011 C.ar    1  UNL1       -0.0232
     35 C         143.7532  139.4835  162.6103 C.ar    1  UNL1        0.0082
     36 C         142.8213  138.3384  162.3454 C.3     1  UNL1        0.0350
     37 C         141.3385  138.5648  162.3364 C.3     1  UNL1        0.0465
     38 C         140.4230  137.5633  162.9757 C.2     1  UNL1        0.0507
     39 O         138.9639  137.5517  162.6279 O.co2   1  UNL1       -0.5492
     40 O         140.9665  136.5733  163.9629 O.co2   1  UNL1       -0.5492
     41 O         143.6808  140.1248  160.0936 O.3     1  UNL1       -0.4758
     42 C         142.6970  141.0691  159.4689 C.3     1  UNL1        0.2058
     43 C         141.7009  140.5612  158.4690 C.3     1  UNL1        0.0532
     44 C         141.2952  139.1171  158.4815 C.3     1  UNL1        0.0455
     45 O         143.4424  138.2442  157.3078 O.co2   1  UNL1       -0.5492
     46 C         141.9676  138.1412  157.5620 C.2     1  UNL1        0.0505
     47 O         141.1653  137.0624  156.8969 O.co2   1  UNL1       -0.5492
@<TRIPOS>UNITY_ATOM_ATTR
39 1
charge -1
45 1
charge -1
@<TRIPOS>BOND
     1    45    46   ar
     2    46    47   ar
     3    46    44    1
     4    44    43    1
     5    43    42    1
     6    42    41    1
     7    41    30    1
     8    30    31   ar
     9    31    32   ar
    10    32    33   ar
    11    33    34   ar
    12    34    29    1
    13    29    28    1
    14    28    27    1
    15    27    26    1
    16    26    25    1
    17    25     1    1
    18     1     2    1
    19     2     3    1
    20     3     4   ar
    21     4     5   ar
    22     5    18    1
    23    18    19   ar
    24    19    20   ar
    25    20    21   ar
    26    21    22   ar
    27    22    23    1
    28    22    24   ar
    29     5     6   ar
    30     6     7   ar
    31     7     9    1
    32     9    10   ar
    33    10    11   ar
    34    11    12   ar
    35    12    13   ar
    36    13    14   ar
    37    13    15    1
    38    15    16    1
    39    16    17    1
    40     7     8   ar
    41    34    35   ar
    42    35    36    1
    43    36    37    1
    44    37    38    1
    45    38    39   ar
    46    38    40   ar
    47    35    30   ar
    48     8     3   ar
    49    24    18   ar
    50    14     9   ar
    51    17    12    1
@<TRIPOS>MOLECULE
*****
 47 51 0 0 0
SMALL
GASTEIGER

@<TRIPOS>ATOM
      1 C         140.4088  137.6548  156.6477 C.3     1  UNL1        0.2054
      2 O         139.5552  137.6198  157.8806 O.3     1  UNL1       -0.4755
      3 C         139.4988  138.8130  158.7878 C.ar    1  UNL1        0.1386
      4 C         139.2182  138.6307  160.2500 C.ar    1  UNL1        0.0369
      5 C         139.1617  139.8239  161.1573 C.ar    1  UNL1        0.0031
      6 C         139.3859  141.1993  160.6024 C.ar    1  UNL1        0.0002
      7 C         139.6665  141.3816  159.1402 C.ar    1  UNL1        0.0031
      8 C         139.7230  140.1884  158.2329 C.ar    1  UNL1        0.0369
      9 C         139.8907  142.7571  158.5852 C.ar    1  UNL1        0.0033
     10 C         140.1232  143.9118  159.5139 C.ar    1  UNL1        0.0033
     11 C         140.3473  145.2872  158.9590 C.ar    1  UNL1        0.0402
     12 C         140.3391  145.5079  157.4753 C.ar    1  UNL1        0.1764
     13 C         140.1066  144.3531  156.5466 C.ar    1  UNL1        0.1764
     14 C         139.8824  142.9777  157.1015 C.ar    1  UNL1        0.0402
     15 O         140.1533  144.8726  155.1402 O.3     1  UNL1       -0.4346
     16 C         140.4147  146.3485  155.1998 C.3     1  UNL1        0.4294
     17 O         140.5295  146.7411  156.6429 O.3     1  UNL1       -0.4346
     18 C         138.8811  139.6417  162.6196 C.ar    1  UNL1        0.0023
     19 C         138.4807  140.8188  163.4587 C.ar    1  UNL1        0.0001
     20 C         138.2001  140.6367  164.9209 C.ar    1  UNL1        0.0023
     21 C         138.3199  139.2775  165.5440 C.ar    1  UNL1        0.0296
     22 C         138.7203  138.1004  164.7048 C.ar    1  UNL1        0.1401
     23 F         138.8401  136.7413  165.3279 F       1  UNL1       -0.2042
     24 C         139.0009  138.2826  163.2426 C.ar    1  UNL1        0.0296
     25 C         141.8082  137.1161  156.6889 C.3     1  UNL1        0.0473
     26 C         142.5458  137.0437  157.9929 C.3     1  UNL1        0.0038
     27 C         142.9362  138.3050  158.7049 C.3     1  UNL1        0.0005
     28 C         143.0692  138.3124  160.1989 C.3     1  UNL1        0.0047
     29 C         143.0679  139.6134  160.9455 C.3     1  UNL1        0.0261
     30 C         142.0276  140.9782  164.5239 C.ar    1  UNL1        0.1342
     31 C         141.9766  139.7018  165.3103 C.ar    1  UNL1        0.0365
     32 C         142.2894  138.3960  164.6417 C.ar    1  UNL1        0.0028
     33 C         142.6532  138.3665  163.1868 C.ar    1  UNL1       -0.0044
     34 C         142.7041  139.6429  162.4005 C.ar    1  UNL1       -0.0232
     35 C         142.3913  140.9488  163.0690 C.ar    1  UNL1        0.0082
     36 C         142.4423  142.2250  162.2826 C.3     1  UNL1        0.0350
     37 C         143.7441  142.9511  162.1150 C.3     1  UNL1        0.0465
     38 C         144.1886  143.9424  163.1493 C.2     1  UNL1        0.0507
     39 O         144.0868  145.4129  162.8715 O.co2   1  UNL1       -0.5492
     40 O         144.7350  143.4631  164.4615 O.co2   1  UNL1       -0.5492
     41 O         141.7148  142.2840  165.1925 O.3     1  UNL1       -0.4758
     42 C         140.8062  143.2713  164.5219 C.3     1  UNL1        0.2058
     43 C         139.7045  143.9262  165.3011 C.3     1  UNL1        0.0532
     44 C         138.5940  144.6325  164.5813 C.3     1  UNL1        0.0455
     45 O         137.7722  143.9272  162.2196 O.co2   1  UNL1       -0.5492
     46 C         138.6439  144.7835  163.0897 C.2     1  UNL1        0.0505
     47 O         139.5654  145.7908  162.4683 O.co2   1  UNL1       -0.5492
@<TRIPOS>UNITY_ATOM_ATTR
39 1
charge -1
45 1
charge -1
@<TRIPOS>BOND
     1    45    46   ar
     2    46    47   ar
     3    46    44    1
     4    44    43    1
     5    43    42    1
     6    42    41    1
     7    41    30    1
     8    30    31   ar
     9    31    32   ar
    10    32    33   ar
    11    33    34   ar
    12    34    29    1
    13    29    28    1
    14    28    27    1
    15    27    26    1
    16    26    25    1
    17    25     1    1
    18     1     2    1
    19     2     3    1
    20     3     4   ar
    21     4     5   ar
    22     5    18    1
    23    18    19   ar
    24    19    20   ar
    25    20    21   ar
    26    21    22   ar
    27    22    23    1
    28    22    24   ar
    29     5     6   ar
    30     6     7   ar
    31     7     9    1
    32     9    10   ar
    33    10    11   ar
    34    11    12   ar
    35    12    13   ar
    36    13    14   ar
    37    13    15    1
    38    15    16    1
    39    16    17    1
    40     7     8   ar
    41    34    35   ar
    42    35    36    1
    43    36    37    1
    44    37    38    1
    45    38    39   ar
    46    38    40   ar
    47    35    30   ar
    48     8     3   ar
    49    24    18   ar
    50    14     9   ar
    51    17    12    1
@<TRIPOS>MOLECULE
*****
 47 51 0 0 0
SMALL
GASTEIGER

@<TRIPOS>ATOM
      1 C         139.1624  140.7983  156.1678 C.3     1  UNL1        0.2054
      2 O         138.3245  141.9981  156.4968 O.3     1  UNL1       -0.4755
      3 C         138.9780  143.2618  156.9721 C.ar    1  UNL1        0.1386
      4 C         138.9891  144.4770  156.0928 C.ar    1  UNL1        0.0369
      5 C         139.6427  145.7408  156.5681 C.ar    1  UNL1        0.0031
      6 C         140.2851  145.7893  157.9227 C.ar    1  UNL1        0.0002
      7 C         140.2740  144.5741  158.8020 C.ar    1  UNL1        0.0031
      8 C         139.6205  143.3104  158.3267 C.ar    1  UNL1        0.0369
      9 C         140.9165  144.6226  160.1566 C.ar    1  UNL1        0.0033
     10 C         140.3735  145.5399  161.2118 C.ar    1  UNL1        0.0033
     11 C         141.0159  145.5885  162.5664 C.ar    1  UNL1        0.0402
     12 C         142.2014  144.7196  162.8657 C.ar    1  UNL1        0.1764
     13 C         142.7445  143.8022  161.8105 C.ar    1  UNL1        0.1764
     14 C         142.1021  143.7537  160.4559 C.ar    1  UNL1        0.0402
     15 O         143.9160  143.0683  162.3926 O.3     1  UNL1       -0.4346
     16 C         144.0970  143.5320  163.8075 C.3     1  UNL1        0.4294
     17 O         143.0373  144.5526  164.1000 O.3     1  UNL1       -0.4346
     18 C         139.6538  146.9560  155.6888 C.ar    1  UNL1        0.0023
     19 C         140.4465  146.9531  154.4154 C.ar    1  UNL1        0.0001
     20 C         140.4576  148.1683  153.5361 C.ar    1  UNL1        0.0023
     21 C         139.6761  149.3864  153.9303 C.ar    1  UNL1        0.0296
     22 C         138.8833  149.3894  155.2038 C.ar    1  UNL1        0.1401
     23 F         138.1019  150.6074  155.5979 F       1  UNL1       -0.2042
     24 C         138.8723  148.1741  156.0830 C.ar    1  UNL1        0.0296
     25 C         139.1521  139.6044  157.0760 C.3     1  UNL1        0.0473
     26 C         139.1878  139.7935  158.5636 C.3     1  UNL1        0.0038
     27 C         137.9200  140.0736  159.3148 C.3     1  UNL1        0.0005
     28 C         137.9788  140.5148  160.7472 C.3     1  UNL1        0.0047
     29 C         139.1700  141.2757  161.2494 C.3     1  UNL1        0.0261
     30 C         139.9022  142.7862  164.8455 C.ar    1  UNL1        0.1342
     31 C         138.8202  143.8205  164.9441 C.ar    1  UNL1        0.0365
     32 C         137.8549  144.0065  163.8111 C.ar    1  UNL1        0.0028
     33 C         137.9715  143.1583  162.5796 C.ar    1  UNL1       -0.0044
     34 C         139.0534  142.1240  162.4809 C.ar    1  UNL1       -0.0232
     35 C         140.0188  141.9379  163.6139 C.ar    1  UNL1        0.0082
     36 C         141.1006  140.9036  163.5152 C.3     1  UNL1        0.0350
     37 C         140.8198  139.4845  163.9118 C.3     1  UNL1        0.0465
     38 C         141.5840  138.3623  163.2741 C.2     1  UNL1        0.0507
     39 O         143.0829  138.4040  163.2329 O.co2   1  UNL1       -0.5492
     40 O         140.8494  137.1985  162.6775 O.co2   1  UNL1       -0.5492
     41 O         140.8675  142.6002  165.9784 O.3     1  UNL1       -0.4758
     42 C         140.3752  142.1225  167.3124 C.3     1  UNL1        0.2058
     43 C         139.9498  140.6948  167.4876 C.3     1  UNL1        0.0532
     44 C         139.9788  140.0652  168.8488 C.3     1  UNL1        0.0455
     45 O         139.3641  141.8951  170.5877 O.co2   1  UNL1       -0.5492
     46 C         139.0757  140.5774  169.9314 C.2     1  UNL1        0.0505
     47 O         137.8844  139.7719  170.3578 O.co2   1  UNL1       -0.5492
@<TRIPOS>UNITY_ATOM_ATTR
39 1
charge -1
45 1
charge -1
@<TRIPOS>BOND
     1    45    46   ar
     2    46    47   ar
     3    46    44    1
     4    44    43    1
     5    43    42    1
     6    42    41    1
     7    41    30    1
     8    30    31   ar
     9    31    32   ar
    10    32    33   ar
    11    33    34   ar
    12    34    29    1
    13    29    28    1
    14    28    27    1
    15    27    26    1
    16    26    25    1
    17    25     1    1
    18     1     2    1
    19     2     3    1
    20     3     4   ar
    21     4     5   ar
    22     5    18    1
    23    18    19   ar
    24    19    20   ar
    25    20    21   ar
    26    21    22   ar
    27    22    23    1
    28    22    24   ar
    29     5     6   ar
    30     6     7   ar
    31     7     9    1
    32     9    10   ar
    33    10    11   ar
    34    11    12   ar
    35    12    13   ar
    36    13    14   ar
    37    13    15    1
    38    15    16    1
    39    16    17    1
    40     7     8   ar
    41    34    35   ar
    42    35    36    1
    43    36    37    1
    44    37    38    1
    45    38    39   ar
    46    38    40   ar
    47    35    30   ar
    48     8     3   ar
    49    24    18   ar
    50    14     9   ar
    51    17    12    1
@<TRIPOS>MOLECULE
*****
 47 51 0 0 0
SMALL
GASTEIGER

@<TRIPOS>ATOM
      1 C         142.5701  138.5362  157.7766 C.3     1  UNL1        0.2054
      2 O         143.7003  139.4179  158.2187 O.3     1  UNL1       -0.4755
      3 C         143.4177  140.7988  158.7317 C.ar    1  UNL1        0.1386
      4 C         143.7364  141.1500  160.1548 C.ar    1  UNL1        0.0369
      5 C         143.4539  142.5309  160.6678 C.ar    1  UNL1        0.0031
      6 C         142.8526  143.5607  159.7578 C.ar    1  UNL1        0.0002
      7 C         142.5339  143.2095  158.3348 C.ar    1  UNL1        0.0031
      8 C         142.8165  141.8285  157.8217 C.ar    1  UNL1        0.0369
      9 C         141.9326  144.2392  157.4247 C.ar    1  UNL1        0.0033
     10 C         142.3920  144.3413  156.0005 C.ar    1  UNL1        0.0033
     11 C         141.7907  145.3710  155.0905 C.ar    1  UNL1        0.0402
     12 C         140.7301  146.2987  155.6047 C.ar    1  UNL1        0.1764
     13 C         140.2707  146.1966  157.0290 C.ar    1  UNL1        0.1764
     14 C         140.8719  145.1669  157.9390 C.ar    1  UNL1        0.0402
     15 O         139.2162  147.2399  157.2518 O.3     1  UNL1       -0.4346
     16 C         139.0239  147.9867  155.9653 C.3     1  UNL1        0.4294
     17 O         139.9595  147.4050  154.9473 O.3     1  UNL1       -0.4346
     18 C         143.7726  142.8822  162.0909 C.ar    1  UNL1        0.0023
     19 C         144.3128  141.8349  163.0189 C.ar    1  UNL1        0.0001
     20 C         144.6315  142.1861  164.4420 C.ar    1  UNL1        0.0023
     21 C         144.4100  143.5846  164.9370 C.ar    1  UNL1        0.0296
     22 C         143.8698  144.6320  164.0089 C.ar    1  UNL1        0.1401
     23 F         143.6483  146.0305  164.5039 F       1  UNL1       -0.2042
     24 C         143.5511  144.2807  162.5859 C.ar    1  UNL1        0.0296
     25 C         141.3219  138.4456  158.6035 C.3     1  UNL1        0.0473
     26 C         140.2002  139.4153  158.3769 C.3     1  UNL1        0.0038
     27 C         139.3842  139.9027  159.5374 C.3     1  UNL1        0.0005
     28 C         139.9946  140.8293  160.5468 C.3     1  UNL1        0.0047
     29 C         140.5051  140.2882  161.8494 C.3     1  UNL1        0.0261
     30 C         141.1508  141.5259  165.5643 C.ar    1  UNL1        0.1342
     31 C         140.7811  142.9751  165.4485 C.ar    1  UNL1        0.0365
     32 C         140.3193  143.5285  164.1331 C.ar    1  UNL1        0.0028
     33 C         140.2273  142.6329  162.9333 C.ar    1  UNL1       -0.0044
     34 C         140.5971  141.1838  163.0491 C.ar    1  UNL1       -0.0232
     35 C         141.0588  140.6303  164.3646 C.ar    1  UNL1        0.0082
     36 C         141.4285  139.1812  164.4802 C.3     1  UNL1        0.0350
     37 C         142.8218  138.7341  164.1502 C.3     1  UNL1        0.0465
     38 C         143.8688  138.6883  165.2234 C.2     1  UNL1        0.0507
     39 O         145.2925  139.0299  164.8972 O.co2   1  UNL1       -0.5492
     40 O         143.4921  138.3010  166.6227 O.co2   1  UNL1       -0.5492
     41 O         141.6126  140.9725  166.8798 O.3     1  UNL1       -0.4758
     42 C         142.6874  141.6764  167.6539 C.3     1  UNL1        0.2058
     43 C         142.6612  141.6654  169.1536 C.3     1  UNL1        0.0532
     44 C         142.2911  142.9089  169.9064 C.3     1  UNL1        0.0455
     45 O         140.0384  144.0957  169.3900 O.co2   1  UNL1       -0.5492
     46 C         140.8562  143.1783  170.2502 C.2     1  UNL1        0.0505
     47 O         140.2390  142.5305  171.4542 O.co2   1  UNL1       -0.5492
@<TRIPOS>UNITY_ATOM_ATTR
39 1
charge -1
45 1
charge -1
@<TRIPOS>BOND
     1    45    46   ar
     2    46    47   ar
     3    46    44    1
     4    44    43    1
     5    43    42    1
     6    42    41    1
     7    41    30    1
     8    30    31   ar
     9    31    32   ar
    10    32    33   ar
    11    33    34   ar
    12    34    29    1
    13    29    28    1
    14    28    27    1
    15    27    26    1
    16    26    25    1
    17    25     1    1
    18     1     2    1
    19     2     3    1
    20     3     4   ar
    21     4     5   ar
    22     5    18    1
    23    18    19   ar
    24    19    20   ar
    25    20    21   ar
    26    21    22   ar
    27    22    23    1
    28    22    24   ar
    29     5     6   ar
    30     6     7   ar
    31     7     9    1
    32     9    10   ar
    33    10    11   ar
    34    11    12   ar
    35    12    13   ar
    36    13    14   ar
    37    13    15    1
    38    15    16    1
    39    16    17    1
    40     7     8   ar
    41    34    35   ar
    42    35    36    1
    43    36    37    1
    44    37    38    1
    45    38    39   ar
    46    38    40   ar
    47    35    30   ar
    48     8     3   ar
    49    24    18   ar
    50    14     9   ar
    51    17    12    1
@<TRIPOS>MOLECULE
*****
 47 51 0 0 0
SMALL
GASTEIGER

@<TRIPOS>ATOM
      1 C         141.1861  143.5961  157.4820 C.3     1  UNL1        0.2054
      2 O         142.5588  143.0561  157.7543 O.3     1  UNL1       -0.4755
      3 C         142.7245  141.6671  158.2958 C.ar    1  UNL1        0.1386
      4 C         143.0916  141.4623  159.7357 C.ar    1  UNL1        0.0369
      5 C         143.2572  140.0733  160.2772 C.ar    1  UNL1        0.0031
      6 C         143.0558  138.8891  159.3789 C.ar    1  UNL1        0.0002
      7 C         142.6887  139.0939  157.9390 C.ar    1  UNL1        0.0031
      8 C         142.5230  140.4829  157.3974 C.ar    1  UNL1        0.0369
      9 C         142.4873  137.9096  157.0405 C.ar    1  UNL1        0.0033
     10 C         141.9728  138.1056  155.6453 C.ar    1  UNL1        0.0033
     11 C         141.7713  136.9214  154.7470 C.ar    1  UNL1        0.0402
     12 C         142.0844  135.5412  155.2439 C.ar    1  UNL1        0.1764
     13 C         142.5990  135.3451  156.6391 C.ar    1  UNL1        0.1764
     14 C         142.8004  136.5293  157.5375 C.ar    1  UNL1        0.0402
     15 O         142.8193  133.8765  156.8499 O.3     1  UNL1       -0.4346
     16 C         142.4410  133.1648  155.5848 C.3     1  UNL1        0.4294
     17 O         141.9868  134.1936  154.5923 O.3     1  UNL1       -0.4346
     18 C         143.6244  139.8684  161.7172 C.ar    1  UNL1        0.0023
     19 C         142.8714  138.8726  162.5487 C.ar    1  UNL1        0.0001
     20 C         143.2384  138.6677  163.9886 C.ar    1  UNL1        0.0023
     21 C         144.3585  139.4586  164.5969 C.ar    1  UNL1        0.0296
     22 C         145.1114  140.4544  163.7653 C.ar    1  UNL1        0.1401
     23 F         146.2314  141.2453  164.3736 F       1  UNL1       -0.2042
     24 C         144.7443  140.6593  162.3255 C.ar    1  UNL1        0.0296
     25 C         140.2808  143.9535  158.6234 C.3     1  UNL1        0.0473
     26 C         140.6376  145.0889  159.5365 C.3     1  UNL1        0.0038
     27 C         140.2864  145.0187  160.9931 C.3     1  UNL1        0.0005
     28 C         141.3712  145.0503  162.0285 C.3     1  UNL1        0.0047
     29 C         142.2632  143.8591  162.2169 C.3     1  UNL1        0.0261
     30 C         142.2780  142.0140  165.7304 C.ar    1  UNL1        0.1342
     31 C         143.5034  142.6094  166.3581 C.ar    1  UNL1        0.0365
     32 C         144.3154  143.6214  165.6053 C.ar    1  UNL1        0.0028
     33 C         143.9019  144.0379  164.2249 C.ar    1  UNL1       -0.0044
     34 C         142.6766  143.4425  163.5973 C.ar    1  UNL1       -0.0232
     35 C         141.8645  142.4305  164.3500 C.ar    1  UNL1        0.0082
     36 C         140.6392  141.8352  163.7223 C.3     1  UNL1        0.0350
     37 C         139.2851  142.3960  164.0418 C.3     1  UNL1        0.0465
     38 C         138.0812  141.5013  164.0308 C.2     1  UNL1        0.0507
     39 O         136.9652  141.7576  163.0618 O.co2   1  UNL1       -0.5492
     40 O         137.9933  140.3504  164.9887 O.co2   1  UNL1       -0.5492
     41 O         141.4660  141.0020  166.4832 O.3     1  UNL1       -0.4758
     42 C         140.3356  141.4505  167.3613 C.3     1  UNL1        0.2058
     43 C         140.3595  142.8194  167.9741 C.3     1  UNL1        0.0532
     44 C         140.7805  142.9943  169.4031 C.3     1  UNL1        0.0455
     45 O         139.1359  143.6028  171.3201 O.co2   1  UNL1       -0.5492
     46 C         139.8642  142.5698  170.5123 C.2     1  UNL1        0.0505
     47 O         139.6762  141.1125  170.8135 O.co2   1  UNL1       -0.5492
@<TRIPOS>UNITY_ATOM_ATTR
39 1
charge -1
45 1
charge -1
@<TRIPOS>BOND
     1    45    46   ar
     2    46    47   ar
     3    46    44    1
     4    44    43    1
     5    43    42    1
     6    42    41    1
     7    41    30    1
     8    30    31   ar
     9    31    32   ar
    10    32    33   ar
    11    33    34   ar
    12    34    29    1
    13    29    28    1
    14    28    27    1
    15    27    26    1
    16    26    25    1
    17    25     1    1
    18     1     2    1
    19     2     3    1
    20     3     4   ar
    21     4     5   ar
    22     5    18    1
    23    18    19   ar
    24    19    20   ar
    25    20    21   ar
    26    21    22   ar
    27    22    23    1
    28    22    24   ar
    29     5     6   ar
    30     6     7   ar
    31     7     9    1
    32     9    10   ar
    33    10    11   ar
    34    11    12   ar
    35    12    13   ar
    36    13    14   ar
    37    13    15    1
    38    15    16    1
    39    16    17    1
    40     7     8   ar
    41    34    35   ar
    42    35    36    1
    43    36    37    1
    44    37    38    1
    45    38    39   ar
    46    38    40   ar
    47    35    30   ar
    48     8     3   ar
    49    24    18   ar
    50    14     9   ar
    51    17    12    1
@<TRIPOS>MOLECULE
*****
 47 51 0 0 0
SMALL
GASTEIGER

@<TRIPOS>ATOM
      1 C         143.6952  143.2182  158.3395 C.3     1  UNL1        0.2054
      2 O         144.4638  141.9380  158.1965 O.3     1  UNL1       -0.4755
      3 C         143.8829  140.6532  158.7082 C.ar    1  UNL1        0.1386
      4 C         143.7783  140.4132  160.1852 C.ar    1  UNL1        0.0369
      5 C         143.1974  139.1284  160.6969 C.ar    1  UNL1        0.0031
      6 C         142.7211  138.0836  159.7317 C.ar    1  UNL1        0.0002
      7 C         142.8257  138.3237  158.2548 C.ar    1  UNL1        0.0031
      8 C         143.4066  139.6085  157.7430 C.ar    1  UNL1        0.0369
      9 C         142.3493  137.2789  157.2895 C.ar    1  UNL1        0.0033
     10 C         141.0017  137.4123  156.6447 C.ar    1  UNL1        0.0033
     11 C         140.5253  136.3676  155.6794 C.ar    1  UNL1        0.0402
     12 C         141.3968  135.1895  155.3590 C.ar    1  UNL1        0.1764
     13 C         142.7445  135.0561  156.0038 C.ar    1  UNL1        0.1764
     14 C         143.2208  136.1008  156.9691 C.ar    1  UNL1        0.0402
     15 O         143.3780  133.7944  155.4972 O.3     1  UNL1       -0.4346
     16 C         142.4217  133.1480  154.5392 C.3     1  UNL1        0.4294
     17 O         141.1972  134.0102  154.4538 O.3     1  UNL1       -0.4346
     18 C         143.0928  138.8882  162.1739 C.ar    1  UNL1        0.0023
     19 C         144.0659  139.5407  163.1106 C.ar    1  UNL1        0.0001
     20 C         143.9614  139.3006  164.5875 C.ar    1  UNL1        0.0023
     21 C         142.8838  138.4080  165.1278 C.ar    1  UNL1        0.0296
     22 C         141.9106  137.7554  164.1911 C.ar    1  UNL1        0.1401
     23 F         140.8331  136.8629  164.7314 F       1  UNL1       -0.2042
     24 C         142.0153  137.9956  162.7142 C.ar    1  UNL1        0.0296
     25 C         142.1957  143.1929  158.3724 C.3     1  UNL1        0.0473
     26 C         141.4350  144.4036  158.8259 C.3     1  UNL1        0.0038
     27 C         140.7676  144.4103  160.1692 C.3     1  UNL1        0.0005
     28 C         141.5958  144.3537  161.4185 C.3     1  UNL1        0.0047
     29 C         142.1261  143.0386  161.9078 C.3     1  UNL1        0.0261
     30 C         142.0886  142.3096  165.8086 C.ar    1  UNL1        0.1342
     31 C         143.5123  142.6163  166.1681 C.ar    1  UNL1        0.0365
     32 C         144.4739  143.0638  165.1073 C.ar    1  UNL1        0.0028
     33 C         144.0118  143.2046  163.6873 C.ar    1  UNL1       -0.0044
     34 C         142.5882  142.8979  163.3279 C.ar    1  UNL1       -0.0232
     35 C         141.6265  142.4503  164.3886 C.ar    1  UNL1        0.0082
     36 C         140.2029  142.1436  164.0291 C.3     1  UNL1        0.0350
     37 C         139.1388  143.1819  164.2283 C.3     1  UNL1        0.0465
     38 C         137.9939  143.2771  163.2638 C.2     1  UNL1        0.0507
     39 O         137.7807  144.5347  162.4747 O.co2   1  UNL1       -0.5492
     40 O         137.0623  142.1146  163.0885 O.co2   1  UNL1       -0.5492
     41 O         141.1270  141.8621  166.8694 O.3     1  UNL1       -0.4758
     42 C         140.8125  142.7644  168.0256 C.3     1  UNL1        0.2058
     43 C         140.7862  142.2143  169.4208 C.3     1  UNL1        0.0532
     44 C         139.5075  141.6756  169.9906 C.3     1  UNL1        0.0455
     45 O         138.8737  139.5733  168.6018 O.co2   1  UNL1       -0.5492
     46 C         139.2145  140.2062  169.9184 C.2     1  UNL1        0.0505
     47 O         139.2624  139.3699  171.1627 O.co2   1  UNL1       -0.5492
@<TRIPOS>UNITY_ATOM_ATTR
39 1
charge -1
45 1
charge -1
@<TRIPOS>BOND
     1    45    46   ar
     2    46    47   ar
     3    46    44    1
     4    44    43    1
     5    43    42    1
     6    42    41    1
     7    41    30    1
     8    30    31   ar
     9    31    32   ar
    10    32    33   ar
    11    33    34   ar
    12    34    29    1
    13    29    28    1
    14    28    27    1
    15    27    26    1
    16    26    25    1
    17    25     1    1
    18     1     2    1
    19     2     3    1
    20     3     4   ar
    21     4     5   ar
    22     5    18    1
    23    18    19   ar
    24    19    20   ar
    25    20    21   ar
    26    21    22   ar
    27    22    23    1
    28    22    24   ar
    29     5     6   ar
    30     6     7   ar
    31     7     9    1
    32     9    10   ar
    33    10    11   ar
    34    11    12   ar
    35    12    13   ar
    36    13    14   ar
    37    13    15    1
    38    15    16    1
    39    16    17    1
    40     7     8   ar
    41    34    35   ar
    42    35    36    1
    43    36    37    1
    44    37    38    1
    45    38    39   ar
    46    38    40   ar
    47    35    30   ar
    48     8     3   ar
    49    24    18   ar
    50    14     9   ar
    51    17    12    1
@<TRIPOS>MOLECULE
*****
 47 51 0 0 0
SMALL
GASTEIGER

@<TRIPOS>ATOM
      1 C         140.3706  138.7088  158.7869 C.3     1  UNL1        0.2054
      2 O         141.7190  139.3650  158.7534 O.3     1  UNL1       -0.4755
      3 C         141.8519  140.8229  159.0804 C.ar    1  UNL1        0.1386
      4 C         142.3170  141.2468  160.4420 C.ar    1  UNL1        0.0369
      5 C         142.4499  142.7046  160.7690 C.ar    1  UNL1        0.0031
      6 C         142.1178  143.7387  159.7344 C.ar    1  UNL1        0.0002
      7 C         141.6528  143.3148  158.3728 C.ar    1  UNL1        0.0031
      8 C         141.5198  141.8569  158.0458 C.ar    1  UNL1        0.0369
      9 C         141.3207  144.3489  157.3381 C.ar    1  UNL1        0.0033
     10 C         142.0895  144.3959  156.0510 C.ar    1  UNL1        0.0033
     11 C         141.7574  145.4299  155.0164 C.ar    1  UNL1        0.0402
     12 C         140.6565  146.4169  155.2688 C.ar    1  UNL1        0.1764
     13 C         139.8876  146.3699  156.5559 C.ar    1  UNL1        0.1764
     14 C         140.2197  145.3359  157.5906 C.ar    1  UNL1        0.0402
     15 O         138.8631  147.4650  156.5242 O.3     1  UNL1       -0.4346
     16 C         138.9988  148.1889  155.2174 C.3     1  UNL1        0.4294
     17 O         140.1072  147.5411  154.4416 O.3     1  UNL1       -0.4346
     18 C         142.9150  143.1286  162.1307 C.ar    1  UNL1        0.0023
     19 C         142.9715  144.5853  162.4840 C.ar    1  UNL1        0.0001
     20 C         143.4365  145.0093  163.8456 C.ar    1  UNL1        0.0023
     21 C         143.8450  143.9766  164.8539 C.ar    1  UNL1        0.0296
     22 C         143.7886  142.5198  164.5006 C.ar    1  UNL1        0.1401
     23 F         144.1971  141.4871  165.5088 F       1  UNL1       -0.2042
     24 C         143.3235  142.0959  163.1389 C.ar    1  UNL1        0.0296
     25 C         139.2141  139.4043  159.4419 C.3     1  UNL1        0.0473
     26 C         138.2580  140.2112  158.6145 C.3     1  UNL1        0.0038
     27 C         138.0258  141.6582  158.9343 C.3     1  UNL1        0.0005
     28 C         138.7341  142.2930  160.0942 C.3     1  UNL1        0.0047
     29 C         138.0009  142.5332  161.3805 C.3     1  UNL1        0.0261
     30 C         140.0176  142.3494  164.7936 C.ar    1  UNL1        0.1342
     31 C         140.2634  143.8057  165.0563 C.ar    1  UNL1        0.0365
     32 C         139.7550  144.8377  164.0938 C.ar    1  UNL1        0.0028
     33 C         139.0008  144.4136  162.8685 C.ar    1  UNL1       -0.0044
     34 C         138.7551  142.9574  162.6058 C.ar    1  UNL1       -0.0232
     35 C         139.2634  141.9252  163.5683 C.ar    1  UNL1        0.0082
     36 C         139.0176  140.4691  163.3055 C.3     1  UNL1        0.0350
     37 C         140.1692  139.5568  163.0026 C.3     1  UNL1        0.0465
     38 C         139.9344  138.0860  162.8256 C.2     1  UNL1        0.0507
     39 O         138.6822  137.4567  163.3604 O.co2   1  UNL1       -0.5492
     40 O         140.9518  137.2444  162.1137 O.co2   1  UNL1       -0.5492
     41 O         140.5260  141.3173  165.7561 O.3     1  UNL1       -0.4758
     42 C         141.3480  141.7355  166.9390 C.3     1  UNL1        0.2058
     43 C         140.6724  142.1818  168.2017 C.3     1  UNL1        0.0532
     44 C         141.4470  142.2451  169.4847 C.3     1  UNL1        0.0455
     45 O         142.8819  143.8644  170.9231 O.co2   1  UNL1       -0.5492
     46 C         141.6036  143.5528  170.2026 C.2     1  UNL1        0.0505
     47 O         140.4821  144.5489  170.1999 O.co2   1  UNL1       -0.5492
@<TRIPOS>UNITY_ATOM_ATTR
39 1
charge -1
45 1
charge -1
@<TRIPOS>BOND
     1    45    46   ar
     2    46    47   ar
     3    46    44    1
     4    44    43    1
     5    43    42    1
     6    42    41    1
     7    41    30    1
     8    30    31   ar
     9    31    32   ar
    10    32    33   ar
    11    33    34   ar
    12    34    29    1
    13    29    28    1
    14    28    27    1
    15    27    26    1
    16    26    25    1
    17    25     1    1
    18     1     2    1
    19     2     3    1
    20     3     4   ar
    21     4     5   ar
    22     5    18    1
    23    18    19   ar
    24    19    20   ar
    25    20    21   ar
    26    21    22   ar
    27    22    23    1
    28    22    24   ar
    29     5     6   ar
    30     6     7   ar
    31     7     9    1
    32     9    10   ar
    33    10    11   ar
    34    11    12   ar
    35    12    13   ar
    36    13    14   ar
    37    13    15    1
    38    15    16    1
    39    16    17    1
    40     7     8   ar
    41    34    35   ar
    42    35    36    1
    43    36    37    1
    44    37    38    1
    45    38    39   ar
    46    38    40   ar
    47    35    30   ar
    48     8     3   ar
    49    24    18   ar
    50    14     9   ar
    51    17    12    1
@<TRIPOS>MOLECULE
*****
 47 51 0 0 0
SMALL
GASTEIGER

@<TRIPOS>ATOM
      1 C         137.6617  140.9017  158.5585 C.3     1  UNL1        0.2054
      2 O         138.4628  139.6535  158.3343 O.3     1  UNL1       -0.4755
      3 C         139.8671  139.5604  158.8532 C.ar    1  UNL1        0.1386
      4 C         140.1158  139.1529  160.2752 C.ar    1  UNL1        0.0369
      5 C         141.5201  139.0598  160.7941 C.ar    1  UNL1        0.0031
      6 C         142.6758  139.3741  159.8910 C.ar    1  UNL1        0.0002
      7 C         142.4271  139.7816  158.4690 C.ar    1  UNL1        0.0031
      8 C         141.0228  139.8747  157.9501 C.ar    1  UNL1        0.0369
      9 C         143.5828  140.0959  157.5658 C.ar    1  UNL1        0.0033
     10 C         143.8073  139.2839  156.3248 C.ar    1  UNL1        0.0033
     11 C         144.9629  139.5982  155.4217 C.ar    1  UNL1        0.0402
     12 C         145.8941  140.7247  155.7595 C.ar    1  UNL1        0.1764
     13 C         145.6696  141.5368  157.0005 C.ar    1  UNL1        0.1764
     14 C         144.5139  141.2224  157.9037 C.ar    1  UNL1        0.0402
     15 O         146.7460  142.5788  157.0737 O.3     1  UNL1       -0.4346
     16 C         147.6358  142.4108  155.8778 C.3     1  UNL1        0.4294
     17 O         147.1093  141.2648  155.0657 O.3     1  UNL1       -0.4346
     18 C         141.7689  138.6523  162.2162 C.ar    1  UNL1        0.0023
     19 C         140.8697  137.6502  162.8774 C.ar    1  UNL1        0.0001
     20 C         141.1184  137.2426  164.2993 C.ar    1  UNL1        0.0023
     21 C         142.2663  137.8372  165.0601 C.ar    1  UNL1        0.0296
     22 C         143.1655  138.8394  164.3989 C.ar    1  UNL1        0.1401
     23 F         144.3133  139.4340  165.1596 F       1  UNL1       -0.2042
     24 C         142.9167  139.2468  162.9769 C.ar    1  UNL1        0.0296
     25 C         138.3448  142.2369  158.5832 C.3     1  UNL1        0.0473
     26 C         138.9388  142.7519  159.8606 C.3     1  UNL1        0.0038
     27 C         138.1133  142.7829  161.1127 C.3     1  UNL1        0.0005
     28 C         138.2986  141.7248  162.1596 C.3     1  UNL1        0.0047
     29 C         139.5803  141.6539  162.9357 C.3     1  UNL1        0.0261
     30 C         140.6718  140.7915  166.6525 C.ar    1  UNL1        0.1342
     31 C         139.6343  139.7737  167.0237 C.ar    1  UNL1        0.0365
     32 C         138.5788  139.3826  166.0321 C.ar    1  UNL1        0.0028
     33 C         138.5608  140.0094  164.6695 C.ar    1  UNL1       -0.0044
     34 C         139.5983  141.0272  164.2983 C.ar    1  UNL1       -0.0232
     35 C         140.6538  141.4183  165.2898 C.ar    1  UNL1        0.0082
     36 C         141.6912  142.4360  164.9186 C.3     1  UNL1        0.0350
     37 C         143.0761  142.3368  165.4863 C.3     1  UNL1        0.0465
     38 C         144.1652  143.2280  164.9672 C.2     1  UNL1        0.0507
     39 O         144.4325  143.3049  163.4932 O.co2   1  UNL1       -0.5492
     40 O         144.9870  144.0423  165.9220 O.co2   1  UNL1       -0.5492
     41 O         141.7273  141.1826  167.6440 O.3     1  UNL1       -0.4758
     42 C         142.4995  140.1240  168.3741 C.3     1  UNL1        0.2058
     43 C         142.5661  140.1432  169.8725 C.3     1  UNL1        0.0532
     44 C         141.3232  139.9179  170.6814 C.3     1  UNL1        0.0455
     45 O         139.0772  141.1453  170.2350 O.co2   1  UNL1       -0.5492
     46 C         140.3898  141.0596  170.9561 C.2     1  UNL1        0.0505
     47 O         140.7690  142.1156  171.9516 O.co2   1  UNL1       -0.5492
@<TRIPOS>UNITY_ATOM_ATTR
39 1
charge -1
45 1
charge -1
@<TRIPOS>BOND
     1    45    46   ar
     2    46    47   ar
     3    46    44    1
     4    44    43    1
     5    43    42    1
     6    42    41    1
     7    41    30    1
     8    30    31   ar
     9    31    32   ar
    10    32    33   ar
    11    33    34   ar
    12    34    29    1
    13    29    28    1
    14    28    27    1
    15    27    26    1
    16    26    25    1
    17    25     1    1
    18     1     2    1
    19     2     3    1
    20     3     4   ar
    21     4     5   ar
    22     5    18    1
    23    18    19   ar
    24    19    20   ar
    25    20    21   ar
    26    21    22   ar
    27    22    23    1
    28    22    24   ar
    29     5     6   ar
    30     6     7   ar
    31     7     9    1
    32     9    10   ar
    33    10    11   ar
    34    11    12   ar
    35    12    13   ar
    36    13    14   ar
    37    13    15    1
    38    15    16    1
    39    16    17    1
    40     7     8   ar
    41    34    35   ar
    42    35    36    1
    43    36    37    1
    44    37    38    1
    45    38    39   ar
    46    38    40   ar
    47    35    30   ar
    48     8     3   ar
    49    24    18   ar
    50    14     9   ar
    51    17    12    1
