@<TRIPOS>MOLECULE
*****
 37 40 0 0 0
SMALL
GASTEIGER

@<TRIPOS>ATOM
      1 N         142.6636  140.0995  162.2468 N.am    1  UNL1       -0.2782
      2 C         143.6617  140.4515  163.3098 C.2     1  UNL1        0.2673
      3 O         144.9277  141.1672  162.9423 O.2     1  UNL1       -0.2682
      4 H         141.8327  139.6297  162.4880 H       1  UNL1        0.1553
      5 C         143.3939  140.0879  164.7401 C.ar    1  UNL1        0.1349
      6 C         143.6909  138.7016  165.2298 C.ar    1  UNL1        0.0261
      7 C         143.4230  138.3379  166.6602 C.ar    1  UNL1        0.0329
      8 C         142.8581  139.3606  167.6009 C.ar    1  UNL1        0.1578
      9 F         142.5903  138.9969  169.0313 F       1  UNL1       -0.2026
     10 C         142.5611  140.7470  167.1113 C.ar    1  UNL1        0.1131
     11 N         142.8289  141.1106  165.6809 N.ar    1  UNL1       -0.2384
     12 C         141.9962  141.7696  168.0520 C.ar    1  UNL1        0.0747
     13 C         142.7684  142.1731  169.2730 C.ar    1  UNL1        0.1438
     14 F         144.1055  141.5539  169.5533 F       1  UNL1       -0.2040
     15 C         142.2034  143.1958  170.2137 C.ar    1  UNL1        0.0298
     16 C         140.8663  143.8150  169.9334 C.ar    1  UNL1        0.0046
     17 C         140.0941  143.4116  168.7124 C.ar    1  UNL1        0.0298
     18 C         140.6590  142.3889  167.7717 C.ar    1  UNL1        0.1438
     19 F         139.8868  141.9855  166.5506 F       1  UNL1       -0.2040
     20 C         142.3197  141.7008  160.2300 C.ar    1  UNL1       -0.0059
     21 C         142.5875  142.0644  158.7996 C.ar    1  UNL1        0.0176
     22 C         143.4672  141.1904  157.9557 C.ar    1  UNL1        0.0987
     23 N         144.0790  139.9527  158.5421 N.ar    1  UNL1       -0.2410
     24 C         143.8111  139.5891  159.9725 C.ar    1  UNL1        0.1132
     25 C         142.9314  140.4631  160.8164 C.ar    1  UNL1        0.0660
     26 C         141.7851  145.4274  163.8114 C.3     1  UNL1        0.0025
     27 C         141.1727  144.4381  162.8647 C.3     1  UNL1        0.0273
     28 C         142.0523  143.5641  162.0207 C.3     1  UNL1        0.0069
     29 C         141.4399  142.5748  161.0740 C.3     1  UNL1        0.0262
     30 C         139.9480  142.4596  160.9712 C.3     1  UNL1        0.0360
     31 C         139.0683  143.3336  161.8152 C.3     1  UNL1        0.1352
     32 O         137.5763  143.2184  161.7124 O.3     1  UNL1       -0.3821
     33 C         139.6807  144.3229  162.7619 C.3     1  UNL1        0.1128
     34 C         138.2259  144.5825  163.0189 C.3     1  UNL1        0.0318
     35 O         139.7878  145.4023  163.7979 O.3     1  UNL1       -0.3844
     36 H         137.1606  143.8494  162.3206 H       1  UNL1        0.2104
     37 H         138.8987  145.6797  164.0689 H       1  UNL1        0.2103
@<TRIPOS>BOND
     1    27    26    1
     2    27    28    1
     3    28    29    1
     4    29    20    1
     5    20    21   ar
     6    21    22   ar
     7    22    23   ar
     8    23    24   ar
     9    24    25   ar
    10    25     1    1
    11     1     2   am
    12     2     3    2
    13     2     5    1
    14     5     6   ar
    15     6     7   ar
    16     7     8   ar
    17     8     9    1
    18     8    10   ar
    19    10    12    1
    20    12    13   ar
    21    13    14    1
    22    13    15   ar
    23    15    16   ar
    24    16    17   ar
    25    17    18   ar
    26    18    19    1
    27    10    11   ar
    28    29    30    1
    29    30    31    1
    30    31    32    1
    31    31    33    1
    32    33    34    1
    33    33    35    1
    34    33    27    1
    35    25    20   ar
    36    11     5   ar
    37    18    12   ar
    38     1     4    1
    39    32    36    1
    40    35    37    1
@<TRIPOS>MOLECULE
*****
 37 40 0 0 0
SMALL
GASTEIGER

@<TRIPOS>ATOM
      1 N         141.9693  139.6686  163.0921 N.am    1  UNL1       -0.2782
      2 C         140.5129  139.5200  163.4191 C.2     1  UNL1        0.2673
      3 O         139.5175  139.2888  162.3211 O.2     1  UNL1       -0.2682
      4 H         142.6226  139.8204  163.8128 H       1  UNL1        0.1553
      5 C         140.0520  139.6028  164.8441 C.ar    1  UNL1        0.1349
      6 C         138.7432  138.9899  165.2458 C.ar    1  UNL1        0.0261
      7 C         138.2823  139.0726  166.6709 C.ar    1  UNL1        0.0329
      8 C         139.1301  139.7682  167.6942 C.ar    1  UNL1        0.1578
      9 F         138.6692  139.8509  169.1192 F       1  UNL1       -0.2026
     10 C         140.4390  140.3811  167.2925 C.ar    1  UNL1        0.1131
     11 N         140.8999  140.2984  165.8675 N.ar    1  UNL1       -0.2384
     12 C         141.2868  141.0767  168.3158 C.ar    1  UNL1        0.0747
     13 C         141.0132  142.5088  168.6685 C.ar    1  UNL1        0.1438
     14 F         139.8917  143.2452  167.9978 F       1  UNL1       -0.2040
     15 C         141.8611  143.2043  169.6919 C.ar    1  UNL1        0.0298
     16 C         142.9826  142.4679  170.3625 C.ar    1  UNL1        0.0046
     17 C         143.2562  141.0358  170.0099 C.ar    1  UNL1        0.0298
     18 C         142.4084  140.3403  168.9866 C.ar    1  UNL1        0.1438
     19 F         142.6820  138.9082  168.6339 F       1  UNL1       -0.2040
     20 C         142.4442  140.8172  160.8106 C.ar    1  UNL1       -0.0059
     21 C         142.9051  140.7345  159.3856 C.ar    1  UNL1        0.0176
     22 C         143.3521  139.4205  158.8170 C.ar    1  UNL1        0.0987
     23 N         143.3382  138.1890  159.6734 N.ar    1  UNL1       -0.2410
     24 C         142.8772  138.2717  161.0985 C.ar    1  UNL1        0.1132
     25 C         142.4302  139.5859  161.6671 C.ar    1  UNL1        0.0660
     26 C         143.4770  145.1407  163.5016 C.3     1  UNL1        0.0025
     27 C         142.5136  144.2931  162.7247 C.3     1  UNL1        0.0273
     28 C         142.9605  142.9790  162.1561 C.3     1  UNL1        0.0069
     29 C         141.9972  142.1314  161.3792 C.3     1  UNL1        0.0262
     30 C         140.5869  142.5979  161.1709 C.3     1  UNL1        0.0360
     31 C         140.1400  143.9120  161.7395 C.3     1  UNL1        0.1352
     32 O         138.7296  144.3786  161.5312 O.3     1  UNL1       -0.3821
     33 C         141.1033  144.7596  162.5164 C.3     1  UNL1        0.1128
     34 C         139.8800  145.6249  162.5863 C.3     1  UNL1        0.0318
     35 O         141.6418  145.9077  163.3176 O.3     1  UNL1       -0.3844
     36 H         138.6074  145.2401  161.9599 H       1  UNL1        0.2104
     37 H         140.9426  146.5675  163.4474 H       1  UNL1        0.2103
@<TRIPOS>BOND
     1    27    26    1
     2    27    28    1
     3    28    29    1
     4    29    20    1
     5    20    21   ar
     6    21    22   ar
     7    22    23   ar
     8    23    24   ar
     9    24    25   ar
    10    25     1    1
    11     1     2   am
    12     2     3    2
    13     2     5    1
    14     5     6   ar
    15     6     7   ar
    16     7     8   ar
    17     8     9    1
    18     8    10   ar
    19    10    12    1
    20    12    13   ar
    21    13    14    1
    22    13    15   ar
    23    15    16   ar
    24    16    17   ar
    25    17    18   ar
    26    18    19    1
    27    10    11   ar
    28    29    30    1
    29    30    31    1
    30    31    32    1
    31    31    33    1
    32    33    34    1
    33    33    35    1
    34    33    27    1
    35    25    20   ar
    36    11     5   ar
    37    18    12   ar
    38     1     4    1
    39    32    36    1
    40    35    37    1
@<TRIPOS>MOLECULE
*****
 37 40 0 0 0
SMALL
GASTEIGER

@<TRIPOS>ATOM
      1 N         143.3610  141.8246  163.0012 N.am    1  UNL1       -0.2782
      2 C         142.8649  140.4514  163.3449 C.2     1  UNL1        0.2673
      3 O         142.3504  139.5475  162.2641 O.2     1  UNL1       -0.2682
      4 H         143.6987  142.4179  163.7106 H       1  UNL1        0.1553
      5 C         142.8834  139.9820  164.7695 C.ar    1  UNL1        0.1349
      6 C         143.5741  138.6997  165.1277 C.ar    1  UNL1        0.0261
      7 C         143.5926  138.2303  166.5523 C.ar    1  UNL1        0.0329
      8 C         142.9204  139.0434  167.6186 C.ar    1  UNL1        0.1578
      9 F         142.9388  138.5740  169.0431 F       1  UNL1       -0.2026
     10 C         142.2296  140.3258  167.2603 C.ar    1  UNL1        0.1131
     11 N         142.2111  140.7951  165.8358 N.ar    1  UNL1       -0.2384
     12 C         141.5573  141.1388  168.3266 C.ar    1  UNL1        0.0747
     13 C         142.2534  142.3324  168.9104 C.ar    1  UNL1        0.1438
     14 F         143.6217  142.7130  168.4279 F       1  UNL1       -0.2040
     15 C         141.5811  143.1455  169.9768 C.ar    1  UNL1        0.0298
     16 C         140.2128  142.7649  170.4593 C.ar    1  UNL1        0.0046
     17 C         139.5167  141.5713  169.8755 C.ar    1  UNL1        0.0298
     18 C         140.1889  140.7583  168.8092 C.ar    1  UNL1        0.1438
     19 F         139.4929  139.5647  168.2254 F       1  UNL1       -0.2040
     20 C         142.0806  142.8499  160.9864 C.ar    1  UNL1       -0.0059
     21 C         142.0621  143.3192  159.5618 C.ar    1  UNL1        0.0176
     22 C         143.3056  143.2326  158.7275 C.ar    1  UNL1        0.0987
     23 N         144.5677  142.6767  159.3177 N.ar    1  UNL1       -0.2410
     24 C         144.5861  142.2074  160.7422 C.ar    1  UNL1        0.1132
     25 C         143.3425  142.2940  161.5766 C.ar    1  UNL1        0.0660
     26 C         137.4838  140.9023  162.4274 C.3     1  UNL1        0.0025
     27 C         138.5386  141.9626  162.5412 C.3     1  UNL1        0.0273
     28 C         139.7822  141.8761  161.7069 C.3     1  UNL1        0.0069
     29 C         140.8370  142.9364  161.8208 C.3     1  UNL1        0.0262
     30 C         140.6483  144.0833  162.7689 C.3     1  UNL1        0.0360
     31 C         139.4048  144.1699  163.6032 C.3     1  UNL1        0.1352
     32 O         139.2161  145.3168  164.5514 O.3     1  UNL1       -0.3821
     33 C         138.3499  143.1095  163.4894 C.3     1  UNL1        0.1128
     34 C         137.7188  143.9950  164.5226 C.3     1  UNL1        0.0318
     35 O         137.0759  142.3567  163.7344 O.3     1  UNL1       -0.3844
     36 H         138.3663  145.2212  165.0094 H       1  UNL1        0.2104
     37 H         136.5475  142.8236  164.4006 H       1  UNL1        0.2103
@<TRIPOS>BOND
     1    27    26    1
     2    27    28    1
     3    28    29    1
     4    29    20    1
     5    20    21   ar
     6    21    22   ar
     7    22    23   ar
     8    23    24   ar
     9    24    25   ar
    10    25     1    1
    11     1     2   am
    12     2     3    2
    13     2     5    1
    14     5     6   ar
    15     6     7   ar
    16     7     8   ar
    17     8     9    1
    18     8    10   ar
    19    10    12    1
    20    12    13   ar
    21    13    14    1
    22    13    15   ar
    23    15    16   ar
    24    16    17   ar
    25    17    18   ar
    26    18    19    1
    27    10    11   ar
    28    29    30    1
    29    30    31    1
    30    31    32    1
    31    31    33    1
    32    33    34    1
    33    33    35    1
    34    33    27    1
    35    25    20   ar
    36    11     5   ar
    37    18    12   ar
    38     1     4    1
    39    32    36    1
    40    35    37    1
@<TRIPOS>MOLECULE
*****
 37 40 0 0 0
SMALL
GASTEIGER

@<TRIPOS>ATOM
      1 N         142.9703  140.7353  160.8634 N.am    1  UNL1       -0.2782
      2 C         143.9801  140.9124  161.9584 C.2     1  UNL1        0.2673
      3 O         145.1607  141.8143  161.7512 O.2     1  UNL1       -0.2682
      4 H         142.1955  140.1434  160.9993 H       1  UNL1        0.1553
      5 C         143.8093  140.1877  163.2605 C.ar    1  UNL1        0.1349
      6 C         145.0079  139.6401  163.9770 C.ar    1  UNL1        0.0261
      7 C         144.8371  138.9154  165.2791 C.ar    1  UNL1        0.0329
      8 C         143.4676  138.7382  165.8648 C.ar    1  UNL1        0.1578
      9 F         143.2968  138.0135  167.1670 F       1  UNL1       -0.2026
     10 C         142.2689  139.2858  165.1484 C.ar    1  UNL1        0.1131
     11 N         142.4397  140.0106  163.8462 N.ar    1  UNL1       -0.2384
     12 C         140.8994  139.1087  165.7341 C.ar    1  UNL1        0.0747
     13 C         140.5037  139.8749  166.9614 C.ar    1  UNL1        0.1438
     14 F         141.4774  140.8183  167.6030 F       1  UNL1       -0.2040
     15 C         139.1341  139.6977  167.5471 C.ar    1  UNL1        0.0298
     16 C         138.1603  138.7543  166.9054 C.ar    1  UNL1        0.0046
     17 C         138.5560  137.9881  165.6781 C.ar    1  UNL1        0.0298
     18 C         139.9255  138.1652  165.0924 C.ar    1  UNL1        0.1438
     19 F         140.3212  137.3990  163.8651 F       1  UNL1       -0.2040
     20 C         142.4196  142.7531  159.3223 C.ar    1  UNL1       -0.0059
     21 C         142.5904  143.4779  158.0202 C.ar    1  UNL1        0.0176
     22 C         143.4828  142.9095  156.9569 C.ar    1  UNL1        0.0987
     23 N         144.2044  141.6163  157.1958 N.ar    1  UNL1       -0.2410
     24 C         144.0336  140.8915  158.4979 C.ar    1  UNL1        0.1132
     25 C         143.1411  141.4600  159.5612 C.ar    1  UNL1        0.0660
     26 C         141.8061  145.5293  163.6717 C.3     1  UNL1        0.0025
     27 C         141.2205  144.7097  162.5602 C.3     1  UNL1        0.0273
     28 C         142.1128  144.1412  161.4970 C.3     1  UNL1        0.0069
     29 C         141.5272  143.3216  160.3856 C.3     1  UNL1        0.0262
     30 C         140.0491  143.0705  160.3374 C.3     1  UNL1        0.0360
     31 C         139.1568  143.6390  161.4006 C.3     1  UNL1        0.1352
     32 O         137.6787  143.3878  161.3524 O.3     1  UNL1       -0.3821
     33 C         139.7425  144.4585  162.5120 C.3     1  UNL1        0.1128
     34 C         138.2930  144.4967  162.8961 C.3     1  UNL1        0.0318
     35 O         139.8246  145.2914  163.7569 O.3     1  UNL1       -0.3844
     36 H         137.2521  143.8223  162.1075 H       1  UNL1        0.2104
     37 H         138.9361  145.4049  164.1292 H       1  UNL1        0.2103
@<TRIPOS>BOND
     1    27    26    1
     2    27    28    1
     3    28    29    1
     4    29    20    1
     5    20    21   ar
     6    21    22   ar
     7    22    23   ar
     8    23    24   ar
     9    24    25   ar
    10    25     1    1
    11     1     2   am
    12     2     3    2
    13     2     5    1
    14     5     6   ar
    15     6     7   ar
    16     7     8   ar
    17     8     9    1
    18     8    10   ar
    19    10    12    1
    20    12    13   ar
    21    13    14    1
    22    13    15   ar
    23    15    16   ar
    24    16    17   ar
    25    17    18   ar
    26    18    19    1
    27    10    11   ar
    28    29    30    1
    29    30    31    1
    30    31    32    1
    31    31    33    1
    32    33    34    1
    33    33    35    1
    34    33    27    1
    35    25    20   ar
    36    11     5   ar
    37    18    12   ar
    38     1     4    1
    39    32    36    1
    40    35    37    1
@<TRIPOS>MOLECULE
*****
 37 40 0 0 0
SMALL
GASTEIGER

@<TRIPOS>ATOM
      1 N         139.4887  140.0884  162.4695 N.am    1  UNL1       -0.2782
      2 C         140.2987  139.4120  163.5356 C.2     1  UNL1        0.2673
      3 O         141.5173  138.6208  163.1630 O.2     1  UNL1       -0.2682
      4 H         138.6889  140.6077  162.7141 H       1  UNL1        0.1553
      5 C         139.8899  139.5268  164.9743 C.ar    1  UNL1        0.1349
      6 C         138.5937  138.9294  165.4356 C.ar    1  UNL1        0.0261
      7 C         138.1849  139.0441  166.8742 C.ar    1  UNL1        0.0329
      8 C         139.0723  139.7563  167.8516 C.ar    1  UNL1        0.1578
      9 F         138.6635  139.8711  169.2902 F       1  UNL1       -0.2026
     10 C         140.3686  140.3538  167.3903 C.ar    1  UNL1        0.1131
     11 N         140.7774  140.2390  165.9516 N.ar    1  UNL1       -0.2384
     12 C         141.2560  141.0659  168.3676 C.ar    1  UNL1        0.0747
     13 C         141.0118  142.5109  168.6875 C.ar    1  UNL1        0.1438
     14 F         139.8801  143.2437  168.0301 F       1  UNL1       -0.2040
     15 C         141.8993  143.2231  169.6649 C.ar    1  UNL1        0.0298
     16 C         143.0310  142.4903  170.3223 C.ar    1  UNL1        0.0046
     17 C         143.2752  141.0453  170.0024 C.ar    1  UNL1        0.0298
     18 C         142.3878  140.3331  169.0251 C.ar    1  UNL1        0.1438
     19 F         142.6321  138.8882  168.7051 F       1  UNL1       -0.2040
     20 C         140.7196  141.0559  160.3961 C.ar    1  UNL1       -0.0059
     21 C         141.1284  140.9411  158.9575 C.ar    1  UNL1        0.0176
     22 C         140.7151  139.7441  158.1536 C.ar    1  UNL1        0.0987
     23 N         139.8930  138.6618  158.7883 N.ar    1  UNL1       -0.2410
     24 C         139.4842  138.7765  160.2269 C.ar    1  UNL1        0.1132
     25 C         139.8975  139.9736  161.0309 C.ar    1  UNL1        0.0660
     26 C         139.8027  145.8906  162.0649 C.3     1  UNL1        0.0025
     27 C         140.6745  144.6703  162.0344 C.3     1  UNL1        0.0273
     28 C         140.2612  143.4733  161.2305 C.3     1  UNL1        0.0069
     29 C         141.1329  142.2530  161.2001 C.3     1  UNL1        0.0262
     30 C         142.4179  142.2297  161.9734 C.3     1  UNL1        0.0360
     31 C         142.8312  143.4267  162.7773 C.3     1  UNL1        0.1352
     32 O         144.1163  143.4035  163.5508 O.3     1  UNL1       -0.3821
     33 C         141.9595  144.6470  162.8078 C.3     1  UNL1        0.1128
     34 C         143.0765  145.1025  163.6993 C.3     1  UNL1        0.0318
     35 O         141.4757  146.0255  163.1479 O.3     1  UNL1       -0.3844
     36 H         144.2319  144.2494  164.0112 H       1  UNL1        0.2104
     37 H         142.1150  146.4564  163.7366 H       1  UNL1        0.2103
@<TRIPOS>BOND
     1    27    26    1
     2    27    28    1
     3    28    29    1
     4    29    20    1
     5    20    21   ar
     6    21    22   ar
     7    22    23   ar
     8    23    24   ar
     9    24    25   ar
    10    25     1    1
    11     1     2   am
    12     2     3    2
    13     2     5    1
    14     5     6   ar
    15     6     7   ar
    16     7     8   ar
    17     8     9    1
    18     8    10   ar
    19    10    12    1
    20    12    13   ar
    21    13    14    1
    22    13    15   ar
    23    15    16   ar
    24    16    17   ar
    25    17    18   ar
    26    18    19    1
    27    10    11   ar
    28    29    30    1
    29    30    31    1
    30    31    32    1
    31    31    33    1
    32    33    34    1
    33    33    35    1
    34    33    27    1
    35    25    20   ar
    36    11     5   ar
    37    18    12   ar
    38     1     4    1
    39    32    36    1
    40    35    37    1
@<TRIPOS>MOLECULE
*****
 37 40 0 0 0
SMALL
GASTEIGER

@<TRIPOS>ATOM
      1 N         140.9352  139.6696  161.6554 N.am    1  UNL1       -0.2782
      2 C         140.2101  139.4300  162.9466 C.2     1  UNL1        0.2673
      3 O         138.7144  139.3175  162.9571 O.2     1  UNL1       -0.2682
      4 H         141.9169  139.7435  161.6485 H       1  UNL1        0.1553
      5 C         140.9808  139.3029  164.2271 C.ar    1  UNL1        0.1349
      6 C         142.0890  138.2982  164.3389 C.ar    1  UNL1        0.0261
      7 C         142.8597  138.1711  165.6195 C.ar    1  UNL1        0.0329
      8 C         142.5223  139.0486  166.7882 C.ar    1  UNL1        0.1578
      9 F         143.2930  138.9215  168.0688 F       1  UNL1       -0.2026
     10 C         141.4141  140.0534  166.6765 C.ar    1  UNL1        0.1131
     11 N         140.6433  140.1805  165.3959 N.ar    1  UNL1       -0.2384
     12 C         141.0766  140.9309  167.8452 C.ar    1  UNL1        0.0747
     13 C         139.8346  140.6703  168.6449 C.ar    1  UNL1        0.1438
     14 F         138.9300  139.5321  168.2758 F       1  UNL1       -0.2040
     15 C         139.4972  141.5479  169.8136 C.ar    1  UNL1        0.0298
     16 C         140.4017  142.6861  170.1827 C.ar    1  UNL1        0.0046
     17 C         141.6438  142.9467  169.3831 C.ar    1  UNL1        0.0298
     18 C         141.9812  142.0691  168.2143 C.ar    1  UNL1        0.1438
     19 F         143.2232  142.3298  167.4147 F       1  UNL1       -0.2040
     20 C         139.5615  141.1152  159.9901 C.ar    1  UNL1       -0.0059
     21 C         138.7908  141.2423  158.7096 C.ar    1  UNL1        0.0176
     22 C         138.6230  140.0510  157.8138 C.ar    1  UNL1        0.0987
     23 N         139.2260  138.7324  158.1985 N.ar    1  UNL1       -0.2410
     24 C         139.9967  138.6053  159.4790 C.ar    1  UNL1        0.1132
     25 C         140.1645  139.7968  160.3749 C.ar    1  UNL1        0.0660
     26 C         137.7335  144.2281  163.7276 C.3     1  UNL1        0.0025
     27 C         138.8152  143.8630  162.7547 C.3     1  UNL1        0.0273
     28 C         138.6475  142.6717  161.8589 C.3     1  UNL1        0.0069
     29 C         139.7293  142.3066  160.8860 C.3     1  UNL1        0.0262
     30 C         140.9787  143.1330  160.8088 C.3     1  UNL1        0.0360
     31 C         141.1465  144.3243  161.7046 C.3     1  UNL1        0.1352
     32 O         142.3960  145.1507  161.6276 O.3     1  UNL1       -0.3821
     33 C         140.0647  144.6893  162.6776 C.3     1  UNL1        0.1128
     34 C         141.0584  145.7732  162.9741 C.3     1  UNL1        0.0318
     35 O         139.3281  145.4308  163.7535 O.3     1  UNL1       -0.3844
     36 H         142.3435  145.8767  162.2687 H       1  UNL1        0.2104
     37 H         139.8637  146.1819  164.0533 H       1  UNL1        0.2103
@<TRIPOS>BOND
     1    27    26    1
     2    27    28    1
     3    28    29    1
     4    29    20    1
     5    20    21   ar
     6    21    22   ar
     7    22    23   ar
     8    23    24   ar
     9    24    25   ar
    10    25     1    1
    11     1     2   am
    12     2     3    2
    13     2     5    1
    14     5     6   ar
    15     6     7   ar
    16     7     8   ar
    17     8     9    1
    18     8    10   ar
    19    10    12    1
    20    12    13   ar
    21    13    14    1
    22    13    15   ar
    23    15    16   ar
    24    16    17   ar
    25    17    18   ar
    26    18    19    1
    27    10    11   ar
    28    29    30    1
    29    30    31    1
    30    31    32    1
    31    31    33    1
    32    33    34    1
    33    33    35    1
    34    33    27    1
    35    25    20   ar
    36    11     5   ar
    37    18    12   ar
    38     1     4    1
    39    32    36    1
    40    35    37    1
@<TRIPOS>MOLECULE
*****
 37 40 0 0 0
SMALL
GASTEIGER

@<TRIPOS>ATOM
      1 N         139.8012  139.9416  162.5964 N.am    1  UNL1       -0.2782
      2 C         140.4055  139.1264  163.7011 C.2     1  UNL1        0.2673
      3 O         141.4546  138.1009  163.3889 O.2     1  UNL1       -0.2682
      4 H         139.1126  140.6147  162.8013 H       1  UNL1        0.1553
      5 C         139.9606  139.3369  165.1181 C.ar    1  UNL1        0.1349
      6 C         138.6320  138.8099  165.5731 C.ar    1  UNL1        0.0261
      7 C         138.1871  139.0204  166.9901 C.ar    1  UNL1        0.0329
      8 C         139.0707  139.7578  167.9520 C.ar    1  UNL1        0.1578
      9 F         138.6258  139.9683  169.3690 F       1  UNL1       -0.2026
     10 C         140.3994  140.2848  167.4970 C.ar    1  UNL1        0.1131
     11 N         140.8443  140.0743  166.0800 N.ar    1  UNL1       -0.2384
     12 C         141.2831  141.0222  168.4589 C.ar    1  UNL1        0.0747
     13 C         142.4274  140.3133  169.1207 C.ar    1  UNL1        0.1438
     14 F         142.6880  138.8669  168.8205 F       1  UNL1       -0.2040
     15 C         143.3111  141.0508  170.0826 C.ar    1  UNL1        0.0298
     16 C         143.0505  142.4971  170.3827 C.ar    1  UNL1        0.0046
     17 C         141.9062  143.2060  169.7209 C.ar    1  UNL1        0.0298
     18 C         141.0225  142.4686  168.7590 C.ar    1  UNL1        0.1438
     19 F         139.8782  143.1776  168.0972 F       1  UNL1       -0.2040
     20 C         141.3772  140.5421  160.6201 C.ar    1  UNL1       -0.0059
     21 C         141.8221  140.3317  159.2032 C.ar    1  UNL1        0.0176
     22 C         141.1359  139.3102  158.3455 C.ar    1  UNL1        0.0987
     23 N         140.0048  138.4991  158.9048 N.ar    1  UNL1       -0.2410
     24 C         139.5599  138.7095  160.3217 C.ar    1  UNL1        0.1132
     25 C         140.2461  139.7311  161.1794 C.ar    1  UNL1        0.0660
     26 C         145.1279  141.8025  163.9882 C.3     1  UNL1        0.0025
     27 C         143.9388  142.1939  163.1618 C.3     1  UNL1        0.0273
     28 C         143.2525  141.1724  162.3042 C.3     1  UNL1        0.0069
     29 C         142.0634  141.5637  161.4778 C.3     1  UNL1        0.0262
     30 C         141.5605  142.9765  161.5092 C.3     1  UNL1        0.0360
     31 C         142.2467  143.9980  162.3668 C.3     1  UNL1        0.1352
     32 O         141.7438  145.4109  162.3982 O.3     1  UNL1       -0.3821
     33 C         143.4359  143.6067  163.1932 C.3     1  UNL1        0.1128
     34 C         143.3336  145.0587  163.5551 C.3     1  UNL1        0.0318
     35 O         144.5895  143.7197  164.1452 O.3     1  UNL1       -0.3844
     36 H         142.2956  145.9372  162.9977 H       1  UNL1        0.2104
     37 H         144.6508  144.6309  164.4722 H       1  UNL1        0.2103
@<TRIPOS>BOND
     1    27    26    1
     2    27    28    1
     3    28    29    1
     4    29    20    1
     5    20    21   ar
     6    21    22   ar
     7    22    23   ar
     8    23    24   ar
     9    24    25   ar
    10    25     1    1
    11     1     2   am
    12     2     3    2
    13     2     5    1
    14     5     6   ar
    15     6     7   ar
    16     7     8   ar
    17     8     9    1
    18     8    10   ar
    19    10    12    1
    20    12    13   ar
    21    13    14    1
    22    13    15   ar
    23    15    16   ar
    24    16    17   ar
    25    17    18   ar
    26    18    19    1
    27    10    11   ar
    28    29    30    1
    29    30    31    1
    30    31    32    1
    31    31    33    1
    32    33    34    1
    33    33    35    1
    34    33    27    1
    35    25    20   ar
    36    11     5   ar
    37    18    12   ar
    38     1     4    1
    39    32    36    1
    40    35    37    1
@<TRIPOS>MOLECULE
*****
 37 40 0 0 0
SMALL
GASTEIGER

@<TRIPOS>ATOM
      1 N         140.9915  139.3418  162.6740 N.am    1  UNL1       -0.2782
      2 C         142.2073  139.8870  163.3631 C.2     1  UNL1        0.2673
      3 O         143.2034  140.7024  162.5932 O.2     1  UNL1       -0.2682
      4 H         140.3377  138.8066  163.1793 H       1  UNL1        0.1553
      5 C         142.4268  139.6166  164.8221 C.ar    1  UNL1        0.1349
      6 C         143.2843  138.4628  165.2503 C.ar    1  UNL1        0.0261
      7 C         143.5039  138.1925  166.7093 C.ar    1  UNL1        0.0329
      8 C         142.8660  139.0759  167.7401 C.ar    1  UNL1        0.1578
      9 F         143.0856  138.8056  169.1991 F       1  UNL1       -0.2026
     10 C         142.0085  140.2298  167.3119 C.ar    1  UNL1        0.1131
     11 N         141.7889  140.5002  165.8529 N.ar    1  UNL1       -0.2384
     12 C         141.3706  141.1133  168.3427 C.ar    1  UNL1        0.0747
     13 C         140.0191  140.7678  168.8939 C.ar    1  UNL1        0.1438
     14 F         139.3054  139.5387  168.4143 F       1  UNL1       -0.2040
     15 C         139.3812  141.6513  169.9247 C.ar    1  UNL1        0.0298
     16 C         140.0949  142.8804  170.4043 C.ar    1  UNL1        0.0046
     17 C         141.4465  143.2259  169.8530 C.ar    1  UNL1        0.0298
     18 C         142.0843  142.3424  168.8223 C.ar    1  UNL1        0.1438
     19 F         143.4359  142.6880  168.2711 F       1  UNL1       -0.2040
     20 C         140.2044  140.9284  160.7732 C.ar    1  UNL1       -0.0059
     21 C         139.9848  141.1988  159.3142 C.ar    1  UNL1        0.0176
     22 C         140.3328  140.1528  158.2969 C.ar    1  UNL1        0.0987
     23 N         140.9003  138.8364  158.7387 N.ar    1  UNL1       -0.2410
     24 C         141.1199  138.5661  160.1977 C.ar    1  UNL1        0.1132
     25 C         140.7719  139.6121  161.2150 C.ar    1  UNL1        0.0660
     26 C         141.2588  145.4348  163.1357 C.3     1  UNL1        0.0025
     27 C         140.3836  144.2276  162.9717 C.3     1  UNL1        0.0273
     28 C         140.7316  143.1816  161.9545 C.3     1  UNL1        0.0069
     29 C         139.8564  141.9745  161.7905 C.3     1  UNL1        0.0262
     30 C         138.6333  141.8134  162.6436 C.3     1  UNL1        0.0360
     31 C         138.2853  142.8594  163.6608 C.3     1  UNL1        0.1352
     32 O         137.0621  142.6983  164.5141 O.3     1  UNL1       -0.3821
     33 C         139.1605  144.0665  163.8249 C.3     1  UNL1        0.1128
     34 C         138.1152  144.3600  164.8598 C.3     1  UNL1        0.0318
     35 O         139.6726  145.3756  164.3484 O.3     1  UNL1       -0.3844
     36 H         136.9841  143.4567  165.1138 H       1  UNL1        0.2104
     37 H         139.0808  145.6987  165.0457 H       1  UNL1        0.2103
@<TRIPOS>BOND
     1    27    26    1
     2    27    28    1
     3    28    29    1
     4    29    20    1
     5    20    21   ar
     6    21    22   ar
     7    22    23   ar
     8    23    24   ar
     9    24    25   ar
    10    25     1    1
    11     1     2   am
    12     2     3    2
    13     2     5    1
    14     5     6   ar
    15     6     7   ar
    16     7     8   ar
    17     8     9    1
    18     8    10   ar
    19    10    12    1
    20    12    13   ar
    21    13    14    1
    22    13    15   ar
    23    15    16   ar
    24    16    17   ar
    25    17    18   ar
    26    18    19    1
    27    10    11   ar
    28    29    30    1
    29    30    31    1
    30    31    32    1
    31    31    33    1
    32    33    34    1
    33    33    35    1
    34    33    27    1
    35    25    20   ar
    36    11     5   ar
    37    18    12   ar
    38     1     4    1
    39    32    36    1
    40    35    37    1
@<TRIPOS>MOLECULE
*****
 37 40 0 0 0
SMALL
GASTEIGER

@<TRIPOS>ATOM
      1 N         142.6969  140.1943  160.8596 N.am    1  UNL1       -0.2782
      2 C         141.2535  139.7908  160.7990 C.2     1  UNL1        0.2673
      3 O         140.4652  140.0112  159.5420 O.2     1  UNL1       -0.2682
      4 H         143.2143  140.0496  161.6846 H       1  UNL1        0.1553
      5 C         140.5983  139.1668  161.9954 C.ar    1  UNL1        0.1349
      6 C         139.4745  138.1906  161.8112 C.ar    1  UNL1        0.0261
      7 C         138.8193  137.5666  163.0076 C.ar    1  UNL1        0.0329
      8 C         139.2880  137.9188  164.3882 C.ar    1  UNL1        0.1578
      9 F         138.6328  137.2948  165.5846 F       1  UNL1       -0.2026
     10 C         140.4119  138.8950  164.5725 C.ar    1  UNL1        0.1131
     11 N         141.0670  139.5190  163.3761 N.ar    1  UNL1       -0.2384
     12 C         140.8805  139.2472  165.9532 C.ar    1  UNL1        0.0747
     13 C         142.2868  138.9340  166.3706 C.ar    1  UNL1        0.1438
     14 F         143.2244  138.2685  165.4073 F       1  UNL1       -0.2040
     15 C         142.7555  139.2862  167.7513 C.ar    1  UNL1        0.0298
     16 C         141.8178  139.9517  168.7146 C.ar    1  UNL1        0.0046
     17 C         140.4115  140.2649  168.2972 C.ar    1  UNL1        0.0298
     18 C         139.9429  139.9127  166.9166 C.ar    1  UNL1        0.1438
     19 F         138.5366  140.2260  166.4992 F       1  UNL1       -0.2040
     20 C         143.3420  142.3088  159.4947 C.ar    1  UNL1       -0.0059
     21 C         143.9971  142.9327  158.2983 C.ar    1  UNL1        0.0176
     22 C         144.6624  142.0663  157.2704 C.ar    1  UNL1        0.0987
     23 N         144.6726  140.5758  157.4389 N.ar    1  UNL1       -0.2410
     24 C         144.0174  139.9518  158.6353 C.ar    1  UNL1        0.1132
     25 C         143.3521  140.8183  159.6632 C.ar    1  UNL1        0.0660
     26 C         143.5870  145.0833  163.8813 C.3     1  UNL1        0.0025
     27 C         142.7992  144.5625  162.7159 C.3     1  UNL1        0.0273
     28 C         143.4645  143.6960  161.6880 C.3     1  UNL1        0.0069
     29 C         142.6766  143.1753  160.5226 C.3     1  UNL1        0.0262
     30 C         141.2235  143.5210  160.3851 C.3     1  UNL1        0.0360
     31 C         140.5583  144.3875  161.4130 C.3     1  UNL1        0.1352
     32 O         139.1051  144.7333  161.2755 O.3     1  UNL1       -0.3821
     33 C         141.3461  144.9083  162.5784 C.3     1  UNL1        0.1128
     34 C         140.0048  145.5071  162.8822 C.3     1  UNL1        0.0318
     35 O         141.6680  145.6370  163.8493 O.3     1  UNL1       -0.3844
     36 H         138.8350  145.2961  162.0179 H       1  UNL1        0.2104
     37 H         140.8724  146.0865  164.1747 H       1  UNL1        0.2103
@<TRIPOS>BOND
     1    27    26    1
     2    27    28    1
     3    28    29    1
     4    29    20    1
     5    20    21   ar
     6    21    22   ar
     7    22    23   ar
     8    23    24   ar
     9    24    25   ar
    10    25     1    1
    11     1     2   am
    12     2     3    2
    13     2     5    1
    14     5     6   ar
    15     6     7   ar
    16     7     8   ar
    17     8     9    1
    18     8    10   ar
    19    10    12    1
    20    12    13   ar
    21    13    14    1
    22    13    15   ar
    23    15    16   ar
    24    16    17   ar
    25    17    18   ar
    26    18    19    1
    27    10    11   ar
    28    29    30    1
    29    30    31    1
    30    31    32    1
    31    31    33    1
    32    33    34    1
    33    33    35    1
    34    33    27    1
    35    25    20   ar
    36    11     5   ar
    37    18    12   ar
    38     1     4    1
    39    32    36    1
    40    35    37    1
