@<TRIPOS>MOLECULE
*****
 35 39 0 0 0
SMALL
GASTEIGER

@<TRIPOS>ATOM
      1 N         138.6600  139.1313  164.9478 N.3     1  UNL1       -0.2715
      2 C         138.0654  140.3202  164.2531 C.3     1  UNL1        0.0726
      3 C         138.0744  140.3955  162.7550 C.3     1  UNL1        0.0260
      4 C         138.6780  139.2819  161.9517 C.3     1  UNL1        0.0737
      5 C         139.2430  138.2506  161.0204 C.3     1  UNL1        0.0306
      6 C         139.0378  138.7330  159.6150 C.3     1  UNL1        0.1001
      7 N         138.3459  140.0625  159.6777 N.am    1  UNL1       -0.2425
      8 C         138.1235  140.4017  161.1218 C.2     1  UNL1        0.2296
      9 O         137.4628  141.6428  161.6444 O.2     1  UNL1       -0.2745
     10 C         139.2727  138.0929  162.6464 C.3     1  UNL1        0.0260
     11 C         139.2637  138.0176  164.1445 C.3     1  UNL1        0.0726
     12 C         137.9465  140.9048  158.5026 C.ar    1  UNL1        0.1574
     13 C         138.6669  142.1902  158.2218 C.ar    1  UNL1        0.0414
     14 C         138.2675  143.0325  157.0466 C.ar    1  UNL1        0.0651
     15 C         137.1477  142.5896  156.1524 C.ar    1  UNL1        0.2766
     16 O         136.7482  143.4319  154.9772 O.2     1  UNL1       -0.2655
     17 N         136.4272  141.3042  156.4332 N.ar    1  UNL1       -0.2134
     18 C         135.3074  140.8612  155.5389 C.3     1  UNL1        0.1571
     19 N         136.8267  140.4619  157.6083 N.ar    1  UNL1       -0.1513
     20 C         138.6511  139.0559  166.4459 C.3     1  UNL1        0.0888
     21 C         137.5211  138.3708  167.1557 C.3     1  UNL1        0.0203
     22 C         139.7721  139.6657  167.2343 C.3     1  UNL1        0.1469
     23 O         139.6479  139.8162  168.7216 O.3     1  UNL1       -0.3787
     24 H         138.7882  139.4723  169.0107 H       1  UNL1        0.2108
     25 C         140.0578  142.5362  166.4102 C.3     1  UNL1        0.0306
     26 C         141.1601  141.5602  166.1233 C.ar    1  UNL1       -0.0238
     27 C         141.0173  140.1250  166.5353 C.ar    1  UNL1        0.0014
     28 C         142.1197  139.1491  166.2484 C.ar    1  UNL1       -0.0020
     29 C         143.3649  139.6083  165.5495 C.ar    1  UNL1        0.0060
     30 C         143.5077  141.0436  165.1375 C.ar    1  UNL1        0.0748
     31 C         142.4054  142.0195  165.4244 C.ar    1  UNL1        0.0233
     32 C         142.8269  143.3613  164.9031 C.3     1  UNL1        0.2352
     33 O         144.1898  143.2147  164.2939 O.3     1  UNL1       -0.4404
     34 C         144.6105  141.7822  164.4388 C.2     1  UNL1        0.3413
     35 O         145.9066  141.1920  163.9678 O.2     1  UNL1       -0.2449
@<TRIPOS>BOND
     1    25    26    1
     2    26    27   ar
     3    27    22    1
     4    22    23    1
     5    22    20    1
     6    20    21    1
     7    20     1    1
     8     1     2    1
     9     2     3    1
    10     3     4    1
    11     4     5    1
    12     5     6    1
    13     6     7    1
    14     7    12    1
    15    12    13   ar
    16    13    14   ar
    17    14    15   ar
    18    15    16    2
    19    15    17   ar
    20    17    18    1
    21    17    19   ar
    22     7     8   am
    23     8     9    2
    24     4    10    1
    25    10    11    1
    26    27    28   ar
    27    28    29   ar
    28    29    30   ar
    29    30    31   ar
    30    31    32    1
    31    32    33    1
    32    33    34    1
    33    34    35    2
    34    31    26   ar
    35    11     1    1
    36    34    30    1
    37     8     4    1
    38    19    12   ar
    39    23    24    1
@<TRIPOS>MOLECULE
*****
 35 39 0 0 0
SMALL
GASTEIGER

@<TRIPOS>ATOM
      1 N         138.6239  139.1685  164.8862 N.3     1  UNL1       -0.2715
      2 C         137.9497  140.3023  164.1723 C.3     1  UNL1        0.0726
      3 C         137.9900  140.3755  162.6747 C.3     1  UNL1        0.0260
      4 C         138.7045  139.3149  161.8909 C.3     1  UNL1        0.0737
      5 C         139.3769  138.3328  160.9779 C.3     1  UNL1        0.0306
      6 C         139.1675  138.7940  159.5659 C.3     1  UNL1        0.1001
      7 N         138.3656  140.0611  159.6063 N.am    1  UNL1       -0.2425
      8 C         138.0795  140.3830  161.0432 C.2     1  UNL1        0.2296
      9 O         137.3045  141.5653  161.5444 O.2     1  UNL1       -0.2745
     10 C         139.3788  138.1810  162.6047 C.3     1  UNL1        0.0260
     11 C         139.3385  138.1078  164.1024 C.3     1  UNL1        0.0726
     12 C         137.9269  140.8650  158.4185 C.ar    1  UNL1        0.1574
     13 C         138.6475  142.1315  158.0624 C.ar    1  UNL1        0.0414
     14 C         138.2088  142.9355  156.8745 C.ar    1  UNL1        0.0651
     15 C         137.0494  142.4730  156.0427 C.ar    1  UNL1        0.2766
     16 O         136.6107  143.2770  154.8547 O.2     1  UNL1       -0.2655
     17 N         136.3287  141.2065  156.3987 N.ar    1  UNL1       -0.2134
     18 C         135.1693  140.7441  155.5669 C.3     1  UNL1        0.1571
     19 N         136.7675  140.4026  157.5866 N.ar    1  UNL1       -0.1513
     20 C         138.5837  139.0952  166.3839 C.3     1  UNL1        0.0888
     21 C         137.5439  138.2565  167.0661 C.3     1  UNL1        0.0203
     22 C         139.5832  139.8607  167.1993 C.3     1  UNL1        0.1469
     23 O         139.6509  139.6600  168.6844 O.3     1  UNL1       -0.3787
     24 H         138.9856  139.0073  168.9531 H       1  UNL1        0.2108
     25 C         142.2953  138.9488  166.2977 C.3     1  UNL1        0.0306
     26 C         141.8711  140.3708  166.0790 C.ar    1  UNL1       -0.0238
     27 C         140.5151  140.8268  166.5298 C.ar    1  UNL1        0.0014
     28 C         140.0909  142.2489  166.3111 C.ar    1  UNL1       -0.0020
     29 C         141.0228  143.2149  165.6416 C.ar    1  UNL1        0.0060
     30 C         142.3788  142.7590  165.1908 C.ar    1  UNL1        0.0748
     31 C         142.8030  141.3370  165.4095 C.ar    1  UNL1        0.0233
     32 C         144.1903  141.1776  164.8619 C.3     1  UNL1        0.2352
     33 O         144.6236  142.5012  164.3048 O.3     1  UNL1       -0.4404
     34 C         143.5040  143.4785  164.5081 C.2     1  UNL1        0.3413
     35 O         143.5088  144.9220  164.1002 O.2     1  UNL1       -0.2449
@<TRIPOS>BOND
     1    25    26    1
     2    26    27   ar
     3    27    22    1
     4    22    23    1
     5    22    20    1
     6    20    21    1
     7    20     1    1
     8     1     2    1
     9     2     3    1
    10     3     4    1
    11     4     5    1
    12     5     6    1
    13     6     7    1
    14     7    12    1
    15    12    13   ar
    16    13    14   ar
    17    14    15   ar
    18    15    16    2
    19    15    17   ar
    20    17    18    1
    21    17    19   ar
    22     7     8   am
    23     8     9    2
    24     4    10    1
    25    10    11    1
    26    27    28   ar
    27    28    29   ar
    28    29    30   ar
    29    30    31   ar
    30    31    32    1
    31    32    33    1
    32    33    34    1
    33    34    35    2
    34    31    26   ar
    35    11     1    1
    36    34    30    1
    37     8     4    1
    38    19    12   ar
    39    23    24    1
@<TRIPOS>MOLECULE
*****
 35 39 0 0 0
SMALL
GASTEIGER

@<TRIPOS>ATOM
      1 N         138.7143  139.3256  164.7520 N.3     1  UNL1       -0.2715
      2 C         139.7078  138.4553  164.0412 C.3     1  UNL1        0.0726
      3 C         139.7806  138.4695  162.5430 C.3     1  UNL1        0.0260
      4 C         138.8600  139.3541  161.7557 C.3     1  UNL1        0.0737
      5 C         138.0087  140.1821  160.8394 C.3     1  UNL1        0.0306
      6 C         138.4195  139.8825  159.4281 C.3     1  UNL1        0.1001
      7 N         139.5247  138.8692  159.4723 N.am    1  UNL1       -0.2425
      8 C         139.7969  138.5427  160.9108 C.2     1  UNL1        0.2296
      9 O         140.8254  137.5747  161.4158 O.2     1  UNL1       -0.2745
     10 C         137.8664  140.2244  162.4665 C.3     1  UNL1        0.0260
     11 C         137.7936  140.2102  163.9647 C.3     1  UNL1        0.0726
     12 C         140.2332  138.2852  158.2863 C.ar    1  UNL1        0.1574
     13 C         141.7283  138.1637  158.2907 C.ar    1  UNL1        0.0414
     14 C         142.4369  137.5797  157.1046 C.ar    1  UNL1        0.0651
     15 C         141.6504  137.1170  155.9141 C.ar    1  UNL1        0.2766
     16 O         142.3589  136.5329  154.7280 O.2     1  UNL1       -0.2655
     17 N         140.1552  137.2384  155.9096 N.ar    1  UNL1       -0.2134
     18 C         139.3687  136.7758  154.7191 C.3     1  UNL1        0.1571
     19 N         139.4468  137.8225  157.0958 N.ar    1  UNL1       -0.1513
     20 C         138.6414  139.3115  166.2502 C.3     1  UNL1        0.0888
     21 C         137.6635  138.4110  166.9450 C.3     1  UNL1        0.0203
     22 C         139.5464  140.1978  167.0535 C.3     1  UNL1        0.1469
     23 O         139.5402  140.1158  168.5513 O.3     1  UNL1       -0.3787
     24 H         138.8996  139.4454  168.8358 H       1  UNL1        0.2108
     25 C         142.3783  139.4185  166.4426 C.3     1  UNL1        0.0306
     26 C         141.8735  140.7763  166.0537 C.ar    1  UNL1       -0.0238
     27 C         140.4576  141.1660  166.3591 C.ar    1  UNL1        0.0014
     28 C         139.9529  142.5240  165.9701 C.ar    1  UNL1       -0.0020
     29 C         140.8641  143.4922  165.2757 C.ar    1  UNL1        0.0060
     30 C         142.2800  143.1025  164.9703 C.ar    1  UNL1        0.0748
     31 C         142.7847  141.7446  165.3592 C.ar    1  UNL1        0.0233
     32 C         144.2185  141.6427  164.9304 C.3     1  UNL1        0.2352
     33 O         144.5999  142.9376  164.2764 O.3     1  UNL1       -0.4404
     34 C         143.4018  143.8398  164.3010 C.2     1  UNL1        0.3413
     35 O         143.3369  145.2345  163.7527 O.2     1  UNL1       -0.2449
@<TRIPOS>BOND
     1    25    26    1
     2    26    27   ar
     3    27    22    1
     4    22    23    1
     5    22    20    1
     6    20    21    1
     7    20     1    1
     8     1     2    1
     9     2     3    1
    10     3     4    1
    11     4     5    1
    12     5     6    1
    13     6     7    1
    14     7    12    1
    15    12    13   ar
    16    13    14   ar
    17    14    15   ar
    18    15    16    2
    19    15    17   ar
    20    17    18    1
    21    17    19   ar
    22     7     8   am
    23     8     9    2
    24     4    10    1
    25    10    11    1
    26    27    28   ar
    27    28    29   ar
    28    29    30   ar
    29    30    31   ar
    30    31    32    1
    31    32    33    1
    32    33    34    1
    33    34    35    2
    34    31    26   ar
    35    11     1    1
    36    34    30    1
    37     8     4    1
    38    19    12   ar
    39    23    24    1
@<TRIPOS>MOLECULE
*****
 35 39 0 0 0
SMALL
GASTEIGER

@<TRIPOS>ATOM
      1 N         142.6153  140.1898  164.4244 N.3     1  UNL1       -0.2715
      2 C         141.7782  139.1488  163.7421 C.3     1  UNL1        0.0726
      3 C         141.9488  138.8932  162.2740 C.3     1  UNL1        0.0260
      4 C         142.9566  139.6785  161.4881 C.3     1  UNL1        0.0737
      5 C         143.9186  140.3813  160.5767 C.3     1  UNL1        0.0306
      6 C         143.7517  139.8123  159.1988 C.3     1  UNL1        0.1001
      7 N         142.6866  138.7579  159.2587 N.am    1  UNL1       -0.2425
      8 C         142.1951  138.6751  160.6735 C.2     1  UNL1        0.2296
      9 O         141.1294  137.7513  161.1841 O.2     1  UNL1       -0.2745
     10 C         143.7937  140.7195  162.1704 C.3     1  UNL1        0.0260
     11 C         143.6231  140.9751  163.6385 C.3     1  UNL1        0.0726
     12 C         142.1985  137.9313  158.1061 C.ar    1  UNL1        0.1574
     13 C         140.7778  138.0568  157.6416 C.ar    1  UNL1        0.0414
     14 C         140.2898  137.2302  156.4890 C.ar    1  UNL1        0.0651
     15 C         141.2224  136.2780  155.8009 C.ar    1  UNL1        0.2766
     16 O         140.7344  135.4514  154.6483 O.2     1  UNL1       -0.2655
     17 N         142.6432  136.1524  156.2654 N.ar    1  UNL1       -0.2134
     18 C         143.5759  135.2002  155.5774 C.3     1  UNL1        0.1571
     19 N         143.1312  136.9791  157.4180 N.ar    1  UNL1       -0.1513
     20 C         142.4447  140.4454  165.8926 C.3     1  UNL1        0.0888
     21 C         142.8195  139.3866  166.8868 C.3     1  UNL1        0.0203
     22 C         141.8993  141.7599  166.3666 C.3     1  UNL1        0.1469
     23 O         141.9402  142.1067  167.8254 O.3     1  UNL1       -0.3787
     24 H         142.3473  141.3781  168.3197 H       1  UNL1        0.2108
     25 C         139.0530  141.4494  165.4711 C.3     1  UNL1        0.0306
     26 C         139.8899  142.5724  164.9340 C.ar    1  UNL1       -0.0238
     27 C         141.3131  142.7276  165.3818 C.ar    1  UNL1        0.0014
     28 C         142.1501  143.8507  164.8447 C.ar    1  UNL1       -0.0020
     29 C         141.5638  144.8183  163.8599 C.ar    1  UNL1        0.0060
     30 C         140.1407  144.6631  163.4121 C.ar    1  UNL1        0.0748
     31 C         139.3037  143.5401  163.9492 C.ar    1  UNL1        0.0233
     32 C         137.9418  143.6392  163.3286 C.3     1  UNL1        0.2352
     33 O         137.9370  144.8234  162.4079 O.3     1  UNL1       -0.4404
     34 C         139.2960  145.4562  162.4596 C.2     1  UNL1        0.3413
     35 O         139.7335  146.6692  161.6932 O.2     1  UNL1       -0.2449
@<TRIPOS>BOND
     1    25    26    1
     2    26    27   ar
     3    27    22    1
     4    22    23    1
     5    22    20    1
     6    20    21    1
     7    20     1    1
     8     1     2    1
     9     2     3    1
    10     3     4    1
    11     4     5    1
    12     5     6    1
    13     6     7    1
    14     7    12    1
    15    12    13   ar
    16    13    14   ar
    17    14    15   ar
    18    15    16    2
    19    15    17   ar
    20    17    18    1
    21    17    19   ar
    22     7     8   am
    23     8     9    2
    24     4    10    1
    25    10    11    1
    26    27    28   ar
    27    28    29   ar
    28    29    30   ar
    29    30    31   ar
    30    31    32    1
    31    32    33    1
    32    33    34    1
    33    34    35    2
    34    31    26   ar
    35    11     1    1
    36    34    30    1
    37     8     4    1
    38    19    12   ar
    39    23    24    1
@<TRIPOS>MOLECULE
*****
 35 39 0 0 0
SMALL
GASTEIGER

@<TRIPOS>ATOM
      1 N         139.5949  139.5185  161.6982 N.3     1  UNL1       -0.2715
      2 C         141.0947  139.5323  161.6863 C.3     1  UNL1        0.0726
      3 C         141.8305  140.0372  160.4806 C.3     1  UNL1        0.0260
      4 C         141.0664  140.5283  159.2869 C.3     1  UNL1        0.0737
      5 C         140.4414  141.0480  158.0262 C.3     1  UNL1        0.0306
      6 C         141.5451  141.4430  157.0903 C.3     1  UNL1        0.1001
      7 N         142.8523  141.1675  157.7726 N.am    1  UNL1       -0.2425
      8 C         142.5564  140.6022  159.1301 C.2     1  UNL1        0.2296
      9 O         143.5721  140.1841  160.1516 O.2     1  UNL1       -0.2745
     10 C         139.5665  140.5144  159.2988 C.3     1  UNL1        0.0260
     11 C         138.8308  140.0095  160.5045 C.3     1  UNL1        0.0726
     12 C         144.2158  141.4140  157.1983 C.ar    1  UNL1        0.1574
     13 C         144.5881  140.8241  155.8704 C.ar    1  UNL1        0.0414
     14 C         145.9517  141.0706  155.2960 C.ar    1  UNL1        0.0651
     15 C         146.9429  141.9071  156.0496 C.ar    1  UNL1        0.2766
     16 O         148.3065  142.1536  155.4752 O.2     1  UNL1       -0.2655
     17 N         146.5706  142.4971  157.3775 N.ar    1  UNL1       -0.2134
     18 C         147.5618  143.3335  158.1311 C.3     1  UNL1        0.1571
     19 N         145.2070  142.2505  157.9518 N.ar    1  UNL1       -0.1513
     20 C         138.8590  139.0135  162.9039 C.3     1  UNL1        0.0888
     21 C         138.8118  137.5423  163.1920 C.3     1  UNL1        0.0203
     22 C         138.1705  139.9800  163.8215 C.3     1  UNL1        0.1469
     23 O         137.1013  140.8876  163.2893 O.3     1  UNL1       -0.3787
     24 H         136.9792  140.7223  162.3413 H       1  UNL1        0.2108
     25 C         140.1981  141.9820  164.7600 C.3     1  UNL1        0.0306
     26 C         139.5649  141.0398  165.7404 C.ar    1  UNL1       -0.0238
     27 C         138.5511  140.0388  165.2712 C.ar    1  UNL1        0.0014
     28 C         137.9178  139.0966  166.2517 C.ar    1  UNL1       -0.0020
     29 C         138.2984  139.1555  167.7014 C.ar    1  UNL1        0.0060
     30 C         139.3122  140.1565  168.1706 C.ar    1  UNL1        0.0748
     31 C         139.9454  141.0986  167.1902 C.ar    1  UNL1        0.0233
     32 C         140.9067  141.9717  167.9408 C.3     1  UNL1        0.2352
     33 O         140.8677  141.5692  169.3853 O.3     1  UNL1       -0.4404
     34 C         139.8822  140.4473  169.5273 C.2     1  UNL1        0.3413
     35 O         139.5287  139.7403  170.8021 O.2     1  UNL1       -0.2449
@<TRIPOS>BOND
     1    25    26    1
     2    26    27   ar
     3    27    22    1
     4    22    23    1
     5    22    20    1
     6    20    21    1
     7    20     1    1
     8     1     2    1
     9     2     3    1
    10     3     4    1
    11     4     5    1
    12     5     6    1
    13     6     7    1
    14     7    12    1
    15    12    13   ar
    16    13    14   ar
    17    14    15   ar
    18    15    16    2
    19    15    17   ar
    20    17    18    1
    21    17    19   ar
    22     7     8   am
    23     8     9    2
    24     4    10    1
    25    10    11    1
    26    27    28   ar
    27    28    29   ar
    28    29    30   ar
    29    30    31   ar
    30    31    32    1
    31    32    33    1
    32    33    34    1
    33    34    35    2
    34    31    26   ar
    35    11     1    1
    36    34    30    1
    37     8     4    1
    38    19    12   ar
    39    23    24    1
@<TRIPOS>MOLECULE
*****
 35 39 0 0 0
SMALL
GASTEIGER

@<TRIPOS>ATOM
      1 N         140.4246  139.3726  161.5234 N.3     1  UNL1       -0.2715
      2 C         141.5806  138.8048  160.7546 C.3     1  UNL1        0.0726
      3 C         142.4156  139.6988  159.8867 C.3     1  UNL1        0.0260
      4 C         142.0946  141.1607  159.7875 C.3     1  UNL1        0.0737
      5 C         141.8956  142.6343  159.5902 C.3     1  UNL1        0.0306
      6 C         142.9534  143.1225  158.6452 C.3     1  UNL1        0.1001
      7 N         143.8061  141.9505  158.2585 N.am    1  UNL1       -0.2425
      8 C         143.2754  140.7381  158.9645 C.2     1  UNL1        0.2296
      9 O         143.8284  139.3474  158.8651 O.2     1  UNL1       -0.2745
     10 C         140.9386  141.7286  160.5563 C.3     1  UNL1        0.0260
     11 C         140.1036  140.8345  161.4243 C.3     1  UNL1        0.0726
     12 C         144.9829  141.9850  157.3291 C.ar    1  UNL1        0.1574
     13 C         146.2576  142.6496  157.7573 C.ar    1  UNL1        0.0414
     14 C         147.4344  142.6841  156.8279 C.ar    1  UNL1        0.0651
     15 C         147.3366  142.0539  155.4702 C.ar    1  UNL1        0.2766
     16 O         148.5134  142.0884  154.5407 O.2     1  UNL1       -0.2655
     17 N         146.0618  141.3892  155.0419 N.ar    1  UNL1       -0.2134
     18 C         145.9640  140.7590  153.6843 C.3     1  UNL1        0.1571
     19 N         144.8851  141.3548  155.9715 N.ar    1  UNL1       -0.1513
     20 C         139.5894  138.4786  162.3914 C.3     1  UNL1        0.0888
     21 C         138.1559  138.2152  162.0370 C.3     1  UNL1        0.0203
     22 C         140.1879  137.8480  163.6138 C.3     1  UNL1        0.1469
     23 O         141.0363  136.6177  163.4841 O.3     1  UNL1       -0.3787
     24 H         141.0964  136.3634  162.5500 H       1  UNL1        0.2108
     25 C         142.3419  139.4333  164.9729 C.3     1  UNL1        0.0306
     26 C         141.0151  139.2403  165.6453 C.ar    1  UNL1       -0.0238
     27 C         139.9381  138.4476  164.9658 C.ar    1  UNL1        0.0014
     28 C         138.6112  138.2547  165.6383 C.ar    1  UNL1       -0.0020
     29 C         138.3614  138.8543  166.9903 C.ar    1  UNL1        0.0060
     30 C         139.4384  139.6469  167.6699 C.ar    1  UNL1        0.0748
     31 C         140.7652  139.8399  166.9974 C.ar    1  UNL1        0.0233
     32 C         141.6294  140.6640  167.9051 C.3     1  UNL1        0.2352
     33 O         140.8367  140.9804  169.1386 O.3     1  UNL1       -0.4404
     34 C         139.4825  140.3518  168.9932 C.2     1  UNL1        0.3413
     35 O         138.3682  140.4166  169.9952 O.2     1  UNL1       -0.2449
@<TRIPOS>BOND
     1    25    26    1
     2    26    27   ar
     3    27    22    1
     4    22    23    1
     5    22    20    1
     6    20    21    1
     7    20     1    1
     8     1     2    1
     9     2     3    1
    10     3     4    1
    11     4     5    1
    12     5     6    1
    13     6     7    1
    14     7    12    1
    15    12    13   ar
    16    13    14   ar
    17    14    15   ar
    18    15    16    2
    19    15    17   ar
    20    17    18    1
    21    17    19   ar
    22     7     8   am
    23     8     9    2
    24     4    10    1
    25    10    11    1
    26    27    28   ar
    27    28    29   ar
    28    29    30   ar
    29    30    31   ar
    30    31    32    1
    31    32    33    1
    32    33    34    1
    33    34    35    2
    34    31    26   ar
    35    11     1    1
    36    34    30    1
    37     8     4    1
    38    19    12   ar
    39    23    24    1
@<TRIPOS>MOLECULE
*****
 35 39 0 0 0
SMALL
GASTEIGER

@<TRIPOS>ATOM
      1 N         143.8126  141.1496  162.1233 N.3     1  UNL1       -0.2715
      2 C         143.4000  139.7093  162.0501 C.3     1  UNL1        0.0726
      3 C         143.1944  139.0550  160.7161 C.3     1  UNL1        0.0260
      4 C         143.4014  139.8409  159.4554 C.3     1  UNL1        0.0737
      5 C         143.5700  140.4961  158.1166 C.3     1  UNL1        0.0306
      6 C         143.2639  139.4766  157.0597 C.3     1  UNL1        0.1001
      7 N         142.9062  138.1912  157.7453 N.am    1  UNL1       -0.2425
      8 C         142.9912  138.4164  159.2259 C.2     1  UNL1        0.2296
      9 O         142.7145  137.3963  160.2902 O.2     1  UNL1       -0.2745
     10 C         143.8140  141.2812  159.5286 C.3     1  UNL1        0.0260
     11 C         144.0196  141.9355  160.8626 C.3     1  UNL1        0.0726
     12 C         142.5297  136.9064  157.0692 C.ar    1  UNL1        0.1574
     13 C         141.4431  136.8935  156.0352 C.ar    1  UNL1        0.0414
     14 C         141.0665  135.6086  155.3589 C.ar    1  UNL1        0.0651
     15 C         141.7766  134.3366  155.7167 C.ar    1  UNL1        0.2766
     16 O         141.4000  133.0517  155.0405 O.2     1  UNL1       -0.2655
     17 N         142.8632  134.3495  156.7507 N.ar    1  UNL1       -0.2134
     18 C         143.5732  133.0776  157.1085 C.3     1  UNL1        0.1571
     19 N         143.2397  135.6345  157.4269 N.ar    1  UNL1       -0.1513
     20 C         144.0182  141.8040  163.4574 C.3     1  UNL1        0.0888
     21 C         145.3604  141.7425  164.1240 C.3     1  UNL1        0.0203
     22 C         142.8814  142.5199  164.1247 C.3     1  UNL1        0.1469
     23 O         142.8248  144.0187  164.1062 O.3     1  UNL1       -0.3787
     24 H         143.5930  144.3654  163.6260 H       1  UNL1        0.2108
     25 C         142.9897  142.0962  167.0927 C.3     1  UNL1        0.0306
     26 C         141.8554  141.5251  166.2944 C.ar    1  UNL1       -0.0238
     27 C         141.8013  141.7370  164.8104 C.ar    1  UNL1        0.0014
     28 C         140.6669  141.1658  164.0122 C.ar    1  UNL1       -0.0020
     29 C         139.5868  140.3829  164.6979 C.ar    1  UNL1        0.0060
     30 C         139.6409  140.1711  166.1819 C.ar    1  UNL1        0.0748
     31 C         140.7752  140.7422  166.9801 C.ar    1  UNL1        0.0233
     32 C         140.5623  140.3725  168.4182 C.3     1  UNL1        0.2352
     33 O         139.2965  139.5728  168.5087 O.3     1  UNL1       -0.4404
     34 C         138.7270  139.4484  167.1266 C.2     1  UNL1        0.3413
     35 O         137.4652  138.7278  166.7545 O.2     1  UNL1       -0.2449
@<TRIPOS>BOND
     1    25    26    1
     2    26    27   ar
     3    27    22    1
     4    22    23    1
     5    22    20    1
     6    20    21    1
     7    20     1    1
     8     1     2    1
     9     2     3    1
    10     3     4    1
    11     4     5    1
    12     5     6    1
    13     6     7    1
    14     7    12    1
    15    12    13   ar
    16    13    14   ar
    17    14    15   ar
    18    15    16    2
    19    15    17   ar
    20    17    18    1
    21    17    19   ar
    22     7     8   am
    23     8     9    2
    24     4    10    1
    25    10    11    1
    26    27    28   ar
    27    28    29   ar
    28    29    30   ar
    29    30    31   ar
    30    31    32    1
    31    32    33    1
    32    33    34    1
    33    34    35    2
    34    31    26   ar
    35    11     1    1
    36    34    30    1
    37     8     4    1
    38    19    12   ar
    39    23    24    1
@<TRIPOS>MOLECULE
*****
 35 39 0 0 0
SMALL
GASTEIGER

@<TRIPOS>ATOM
      1 N         139.8088  138.1876  164.3000 N.3     1  UNL1       -0.2715
      2 C         139.2760  138.2429  162.8989 C.3     1  UNL1        0.0726
      3 C         140.2205  138.1929  161.7348 C.3     1  UNL1        0.0260
      4 C         141.6979  138.0876  161.9717 C.3     1  UNL1        0.0737
      5 C         143.1921  137.9833  162.0525 C.3     1  UNL1        0.0306
      6 C         143.7319  137.9644  160.6530 C.3     1  UNL1        0.1001
      7 N         142.5712  138.0571  159.7073 N.am    1  UNL1       -0.2425
      8 C         141.3142  138.1333  160.5223 C.2     1  UNL1        0.2296
      9 O         139.9185  138.2369  159.9827 O.2     1  UNL1       -0.2745
     10 C         142.2308  138.0323  163.3727 C.3     1  UNL1        0.0260
     11 C         141.2862  138.0823  164.5369 C.3     1  UNL1        0.0726
     12 C         142.6531  138.0712  158.2097 C.ar    1  UNL1        0.1574
     13 C         142.2579  139.3018  157.4485 C.ar    1  UNL1        0.0414
     14 C         142.3398  139.3158  155.9508 C.ar    1  UNL1        0.0651
     15 C         142.8170  138.0994  155.2143 C.ar    1  UNL1        0.2766
     16 O         142.8990  138.1134  153.7165 O.2     1  UNL1       -0.2655
     17 N         143.2123  136.8687  155.9755 N.ar    1  UNL1       -0.2134
     18 C         143.6895  135.6522  155.2390 C.3     1  UNL1        0.1571
     19 N         143.1303  136.8547  157.4732 N.ar    1  UNL1       -0.1513
     20 C         138.8642  138.2375  165.4642 C.3     1  UNL1        0.0888
     21 C         138.2086  136.9799  165.9526 C.3     1  UNL1        0.0203
     22 C         138.5753  139.5451  166.1400 C.3     1  UNL1        0.1469
     23 O         138.1807  139.5705  167.5870 O.3     1  UNL1       -0.3787
     24 H         138.1602  138.6643  167.9324 H       1  UNL1        0.2108
     25 C         141.0135  141.2699  166.4240 C.3     1  UNL1        0.0306
     26 C         139.9000  141.6897  165.5109 C.ar    1  UNL1       -0.0238
     27 C         138.6809  140.8274  165.3688 C.ar    1  UNL1        0.0014
     28 C         137.5675  141.2473  164.4556 C.ar    1  UNL1       -0.0020
     29 C         137.6731  142.5295  163.6844 C.ar    1  UNL1        0.0060
     30 C         138.8922  143.3919  163.8265 C.ar    1  UNL1        0.0748
     31 C         140.0056  142.9720  164.7396 C.ar    1  UNL1        0.0233
     32 C         141.0771  144.0198  164.6764 C.3     1  UNL1        0.2352
     33 O         140.6258  145.0873  163.7241 O.3     1  UNL1       -0.4404
     34 C         139.2755  144.6992  163.1988 C.2     1  UNL1        0.3413
     35 O         138.4528  145.4811  162.2181 O.2     1  UNL1       -0.2449
@<TRIPOS>BOND
     1    25    26    1
     2    26    27   ar
     3    27    22    1
     4    22    23    1
     5    22    20    1
     6    20    21    1
     7    20     1    1
     8     1     2    1
     9     2     3    1
    10     3     4    1
    11     4     5    1
    12     5     6    1
    13     6     7    1
    14     7    12    1
    15    12    13   ar
    16    13    14   ar
    17    14    15   ar
    18    15    16    2
    19    15    17   ar
    20    17    18    1
    21    17    19   ar
    22     7     8   am
    23     8     9    2
    24     4    10    1
    25    10    11    1
    26    27    28   ar
    27    28    29   ar
    28    29    30   ar
    29    30    31   ar
    30    31    32    1
    31    32    33    1
    32    33    34    1
    33    34    35    2
    34    31    26   ar
    35    11     1    1
    36    34    30    1
    37     8     4    1
    38    19    12   ar
    39    23    24    1
@<TRIPOS>MOLECULE
*****
 35 39 0 0 0
SMALL
GASTEIGER

@<TRIPOS>ATOM
      1 N         140.4944  143.3757  161.1333 N.3     1  UNL1       -0.2715
      2 C         139.7102  142.2354  160.5547 C.3     1  UNL1        0.0726
      3 C         140.4060  141.1800  159.7474 C.3     1  UNL1        0.0260
      4 C         141.8861  141.2648  159.5187 C.3     1  UNL1        0.0737
      5 C         143.3527  141.2166  159.2076 C.3     1  UNL1        0.0306
      6 C         143.6105  139.9942  158.3773 C.3     1  UNL1        0.1001
      7 N         142.3032  139.2869  158.1753 N.am    1  UNL1       -0.2425
      8 C         141.2375  140.0721  158.8807 C.2     1  UNL1        0.2296
      9 O         139.7792  139.7256  158.9381 O.2     1  UNL1       -0.2745
     10 C         142.6702  142.4051  160.0973 C.3     1  UNL1        0.0260
     11 C         141.9744  143.4605  160.9046 C.3     1  UNL1        0.0726
     12 C         142.0978  138.0173  157.4035 C.ar    1  UNL1        0.1574
     13 C         141.0280  137.9419  156.3548 C.ar    1  UNL1        0.0414
     14 C         140.8225  136.6722  155.5829 C.ar    1  UNL1        0.0651
     15 C         141.6869  135.4780  155.8597 C.ar    1  UNL1        0.2766
     16 O         141.4815  134.2083  155.0878 O.2     1  UNL1       -0.2655
     17 N         142.7568  135.5534  156.9084 N.ar    1  UNL1       -0.2134
     18 C         143.6212  134.3591  157.1852 C.3     1  UNL1        0.1571
     19 N         142.9622  136.8231  157.6802 N.ar    1  UNL1       -0.1513
     20 C         139.7985  144.4312  161.9407 C.3     1  UNL1        0.0888
     21 C         140.1859  145.8718  161.7846 C.3     1  UNL1        0.0203
     22 C         138.7153  144.0460  162.9042 C.3     1  UNL1        0.1469
     23 O         137.3235  144.5735  162.7180 O.3     1  UNL1       -0.3787
     24 H         137.2962  145.1441  161.9340 H       1  UNL1        0.2108
     25 C         137.3859  141.3629  163.0880 C.3     1  UNL1        0.0306
     26 C         138.3592  141.7917  164.1457 C.ar    1  UNL1       -0.0238
     27 C         139.0239  143.1332  164.0538 C.ar    1  UNL1        0.0014
     28 C         139.9972  143.5620  165.1116 C.ar    1  UNL1       -0.0020
     29 C         140.3057  142.6493  166.2612 C.ar    1  UNL1        0.0060
     30 C         139.6410  141.3077  166.3531 C.ar    1  UNL1        0.0748
     31 C         138.6678  140.8789  165.2954 C.ar    1  UNL1        0.0233
     32 C         138.1714  139.5087  165.6502 C.3     1  UNL1        0.2352
     33 O         138.8380  139.0906  166.9273 O.3     1  UNL1       -0.4404
     34 C         139.7462  140.2024  167.3617 C.2     1  UNL1        0.3413
     35 O         140.6083  140.2081  168.5891 O.2     1  UNL1       -0.2449
@<TRIPOS>BOND
     1    25    26    1
     2    26    27   ar
     3    27    22    1
     4    22    23    1
     5    22    20    1
     6    20    21    1
     7    20     1    1
     8     1     2    1
     9     2     3    1
    10     3     4    1
    11     4     5    1
    12     5     6    1
    13     6     7    1
    14     7    12    1
    15    12    13   ar
    16    13    14   ar
    17    14    15   ar
    18    15    16    2
    19    15    17   ar
    20    17    18    1
    21    17    19   ar
    22     7     8   am
    23     8     9    2
    24     4    10    1
    25    10    11    1
    26    27    28   ar
    27    28    29   ar
    28    29    30   ar
    29    30    31   ar
    30    31    32    1
    31    32    33    1
    32    33    34    1
    33    34    35    2
    34    31    26   ar
    35    11     1    1
    36    34    30    1
    37     8     4    1
    38    19    12   ar
    39    23    24    1
