@<TRIPOS>MOLECULE
*****
 43 49 0 0 0
SMALL
GASTEIGER

@<TRIPOS>ATOM
      1 C         137.8257  142.9551  162.8680 C.3     1  UNL1        0.0932
      2 C         138.0502  142.6359  161.4197 C.3     1  UNL1        0.0286
      3 C         138.0756  141.2078  160.9616 C.3     1  UNL1        0.0193
      4 C         137.8765  140.0989  161.9519 C.3     1  UNL1        0.0700
      5 C         137.6520  140.4181  163.4003 C.3     1  UNL1        0.0193
      6 C         137.6265  141.8462  163.8583 C.3     1  UNL1        0.0286
      7 C         137.8544  140.8660  162.2503 C.3     1  UNL1        0.1562
      8 O         137.8314  142.1573  162.6644 O.3     1  UNL1       -0.3572
      9 N         137.9019  138.6708  161.4939 N.3     1  UNL1       -0.2926
     10 H         137.3251  138.6205  160.6541 H       1  UNL1        0.1236
     11 C         139.2084  138.0128  161.1618 C.3     1  UNL1        0.1152
     12 C         140.4000  138.2214  162.0488 C.ar    1  UNL1        0.0765
     13 C         140.5446  137.4231  163.3105 C.ar    1  UNL1        0.0193
     14 C         141.7362  137.6316  164.1974 C.ar    1  UNL1        0.0411
     15 C         142.7831  138.6383  163.8227 C.ar    1  UNL1        0.1708
     16 C         142.6384  139.4366  162.5609 C.ar    1  UNL1        0.1682
     17 N         141.4469  139.2281  161.6740 N.ar    1  UNL1       -0.2304
     18 N         143.6854  140.4433  162.1862 N.am    1  UNL1       -0.2639
     19 C         144.8769  140.6518  163.0731 C.2     1  UNL1        0.2718
     20 O         145.9239  141.6586  162.6984 O.2     1  UNL1       -0.2707
     21 C         145.0216  139.8536  164.3349 C.3     1  UNL1        0.2898
     22 O         143.9747  138.8469  164.7096 O.3     1  UNL1       -0.4628
     23 H         143.5905  140.9672  161.3581 H       1  UNL1        0.1565
     24 C         137.8002  144.3833  163.3261 C.3     1  UNL1        0.0320
     25 C         138.8419  144.8826  164.2830 C.3     1  UNL1        0.0327
     26 C         140.9235  142.1200  167.1614 C.ar    1  UNL1        0.2249
     27 C         142.3659  141.7664  166.9514 C.ar    1  UNL1        0.0593
     28 C         143.1146  142.3336  165.7819 C.ar    1  UNL1        0.0254
     29 C         142.4207  143.2545  164.8224 C.ar    1  UNL1        0.0990
     30 N         143.1694  143.8217  163.6529 N.ar    1  UNL1       -0.2400
     31 C         142.4755  144.7426  162.6934 C.ar    1  UNL1        0.1281
     32 C         141.0330  145.0962  162.9035 C.ar    1  UNL1        0.1566
     33 F         140.3391  146.0171  161.9440 F       1  UNL1       -0.2028
     34 C         140.2844  144.5290  164.0730 C.ar    1  UNL1        0.0261
     35 C         140.9782  143.6081  165.0324 C.ar    1  UNL1        0.1002
     36 N         140.2296  143.0409  166.2020 N.ar    1  UNL1       -0.2104
     37 O         140.1748  141.5528  168.3310 O.3     1  UNL1       -0.4591
     38 C         140.5685  140.2217  168.8994 C.3     1  UNL1        0.2209
     39 C         141.6129  140.1441  169.9734 C.3     1  UNL1        0.1196
     40 C         142.8432  139.7114  170.7143 C.3     1  UNL1        0.0189
     41 C         142.5110  139.0951  169.3878 C.3     1  UNL1        0.0189
     42 N         140.5419  142.1883  171.8900 N.1     1  UNL1       -0.1958
     43 C         141.0774  141.1662  170.9317 C.1     1  UNL1        0.0748
@<TRIPOS>BOND
     1    42    43    3
     2    43    39    1
     3    39    38    1
     4    38    37    1
     5    37    26    1
     6    26    27   ar
     7    27    28   ar
     8    28    29   ar
     9    29    30   ar
    10    30    31   ar
    11    31    32   ar
    12    32    33    1
    13    32    34   ar
    14    34    25    1
    15    25    24    1
    16    24     1    1
    17     1     2    1
    18     2     3    1
    19     3     4    1
    20     4     9    1
    21     9    11    1
    22    11    12    1
    23    12    13   ar
    24    13    14   ar
    25    14    15   ar
    26    15    16   ar
    27    16    17   ar
    28    16    18    1
    29    18    19   am
    30    19    20    2
    31    19    21    1
    32    21    22    1
    33     4     5    1
    34     5     6    1
    35     4     7    1
    36     7     8    1
    37    34    35   ar
    38    35    36   ar
    39    39    40    1
    40    40    41    1
    41    41    39    1
    42    36    26   ar
    43    35    29   ar
    44     6     1    1
    45     8     1    1
    46    17    12   ar
    47    22    15    1
    48     9    10    1
    49    18    23    1
@<TRIPOS>MOLECULE
*****
 43 49 0 0 0
SMALL
GASTEIGER

@<TRIPOS>ATOM
      1 C         141.7759  138.3054  164.0346 C.3     1  UNL1        0.0932
      2 C         142.6206  138.7977  165.1721 C.3     1  UNL1        0.0286
      3 C         143.8986  139.5324  164.8940 C.3     1  UNL1        0.0193
      4 C         144.3317  139.7746  163.4785 C.3     1  UNL1        0.0700
      5 C         143.4869  139.2822  162.3410 C.3     1  UNL1        0.0193
      6 C         142.2090  138.5476  162.6190 C.3     1  UNL1        0.0286
      7 C         143.6235  139.3672  163.5812 C.3     1  UNL1        0.1562
      8 O         142.4680  138.7030  163.8327 O.3     1  UNL1       -0.3572
      9 N         145.6096  140.5092  163.2005 N.3     1  UNL1       -0.2926
     10 H         145.8194  140.3713  162.2118 H       1  UNL1        0.1236
     11 C         145.6988  141.9838  163.4605 C.3     1  UNL1        0.1152
     12 C         144.4985  142.8573  163.2451 C.ar    1  UNL1        0.0765
     13 C         143.8017  143.4774  164.4198 C.ar    1  UNL1        0.0193
     14 C         142.6015  144.3509  164.2044 C.ar    1  UNL1        0.0411
     15 C         142.0981  144.6043  162.8144 C.ar    1  UNL1        0.1708
     16 C         142.7949  143.9843  161.6396 C.ar    1  UNL1        0.1682
     17 N         143.9951  143.1108  161.8550 N.ar    1  UNL1       -0.2304
     18 N         142.2914  144.2377  160.2495 N.am    1  UNL1       -0.2639
     19 C         141.0912  145.1113  160.0342 C.2     1  UNL1        0.2718
     20 O         140.5878  145.3647  158.6440 O.2     1  UNL1       -0.2707
     21 C         140.3944  145.7313  161.2089 C.3     1  UNL1        0.2898
     22 O         140.8978  145.4779  162.5989 O.3     1  UNL1       -0.4628
     23 H         142.7488  143.8308  159.4785 H       1  UNL1        0.1565
     24 C         140.4979  137.5707  164.3126 C.3     1  UNL1        0.0320
     25 C         139.2487  138.3351  164.6366 C.3     1  UNL1        0.0327
     26 C         139.3412  142.7687  165.4015 C.ar    1  UNL1        0.2249
     27 C         138.7591  143.7158  164.3946 C.ar    1  UNL1        0.0593
     28 C         138.1461  143.1851  163.1326 C.ar    1  UNL1        0.0254
     29 C         138.1153  141.7073  162.8776 C.ar    1  UNL1        0.0990
     30 N         137.5022  141.1766  161.6156 N.ar    1  UNL1       -0.2400
     31 C         137.4714  139.6987  161.3606 C.ar    1  UNL1        0.1281
     32 C         138.0536  138.7516  162.3677 C.ar    1  UNL1        0.1566
     33 F         138.0227  137.2737  162.1127 F       1  UNL1       -0.2028
     34 C         138.6665  139.2823  163.6296 C.ar    1  UNL1        0.0261
     35 C         138.6974  140.7601  163.8846 C.ar    1  UNL1        0.1002
     36 N         139.3104  141.2908  165.1465 N.ar    1  UNL1       -0.2104
     37 O         139.9542  143.2994  166.6636 O.3     1  UNL1       -0.4591
     38 C         140.7936  142.4026  167.5244 C.3     1  UNL1        0.2209
     39 C         140.2975  141.9811  168.8759 C.3     1  UNL1        0.1196
     40 C         139.8072  141.0983  169.9850 C.3     1  UNL1        0.0189
     41 C         140.1417  140.5067  168.6479 C.3     1  UNL1        0.0189
     42 N         140.2648  144.6371  170.2702 N.1     1  UNL1       -0.1958
     43 C         140.2811  143.3091  169.5731 C.1     1  UNL1        0.0748
@<TRIPOS>BOND
     1    42    43    3
     2    43    39    1
     3    39    38    1
     4    38    37    1
     5    37    26    1
     6    26    27   ar
     7    27    28   ar
     8    28    29   ar
     9    29    30   ar
    10    30    31   ar
    11    31    32   ar
    12    32    33    1
    13    32    34   ar
    14    34    25    1
    15    25    24    1
    16    24     1    1
    17     1     2    1
    18     2     3    1
    19     3     4    1
    20     4     9    1
    21     9    11    1
    22    11    12    1
    23    12    13   ar
    24    13    14   ar
    25    14    15   ar
    26    15    16   ar
    27    16    17   ar
    28    16    18    1
    29    18    19   am
    30    19    20    2
    31    19    21    1
    32    21    22    1
    33     4     5    1
    34     5     6    1
    35     4     7    1
    36     7     8    1
    37    34    35   ar
    38    35    36   ar
    39    39    40    1
    40    40    41    1
    41    41    39    1
    42    36    26   ar
    43    35    29   ar
    44     6     1    1
    45     8     1    1
    46    17    12   ar
    47    22    15    1
    48     9    10    1
    49    18    23    1
@<TRIPOS>MOLECULE
*****
 43 49 0 0 0
SMALL
GASTEIGER

@<TRIPOS>ATOM
      1 C         137.9296  142.6953  163.8398 C.3     1  UNL1        0.0932
      2 C         137.7452  142.5607  162.3574 C.3     1  UNL1        0.0286
      3 C         137.7250  141.2009  161.7244 C.3     1  UNL1        0.0193
      4 C         137.8893  139.9757  162.5741 C.3     1  UNL1        0.0700
      5 C         138.0738  140.1103  164.0566 C.3     1  UNL1        0.0193
      6 C         138.0939  141.4701  164.6895 C.3     1  UNL1        0.0286
      7 C         137.9071  140.6996  162.9662 C.3     1  UNL1        0.1562
      8 O         137.9253  141.9291  163.5384 O.3     1  UNL1       -0.3572
      9 N         137.8692  138.6159  161.9412 N.3     1  UNL1       -0.2926
     10 H         137.1443  138.6356  161.2240 H       1  UNL1        0.1236
     11 C         139.1071  138.0730  161.2909 C.3     1  UNL1        0.1152
     12 C         140.4545  138.3648  161.8821 C.ar    1  UNL1        0.0765
     13 C         141.5326  138.9670  161.0307 C.ar    1  UNL1        0.0193
     14 C         142.8799  139.2588  161.6218 C.ar    1  UNL1        0.0411
     15 C         143.1492  138.9483  163.0643 C.ar    1  UNL1        0.1708
     16 C         142.0711  138.3461  163.9158 C.ar    1  UNL1        0.1682
     17 N         140.7237  138.0543  163.3247 N.ar    1  UNL1       -0.2304
     18 N         142.3404  138.0356  165.3584 N.am    1  UNL1       -0.2639
     19 C         143.6878  138.3274  165.9495 C.2     1  UNL1        0.2718
     20 O         143.9571  138.0169  167.3922 O.2     1  UNL1       -0.2707
     21 C         144.7659  138.9296  165.0981 C.3     1  UNL1        0.2898
     22 O         144.4966  139.2401  163.6555 O.3     1  UNL1       -0.4628
     23 H         141.6328  137.6403  165.9173 H       1  UNL1        0.1565
     24 C         137.9497  144.0552  164.4728 C.3     1  UNL1        0.0320
     25 C         139.2575  144.7425  164.7319 C.3     1  UNL1        0.0327
     26 C         143.0520  142.5554  165.7654 C.ar    1  UNL1        0.2249
     27 C         144.1610  142.4611  164.7598 C.ar    1  UNL1        0.0593
     28 C         144.0052  143.0958  163.4097 C.ar    1  UNL1        0.0254
     29 C         142.7403  143.8249  163.0652 C.ar    1  UNL1        0.0990
     30 N         142.5845  144.4596  161.7150 N.ar    1  UNL1       -0.2400
     31 C         141.3197  145.1887  161.3705 C.ar    1  UNL1        0.1281
     32 C         140.2107  145.2830  162.3762 C.ar    1  UNL1        0.1566
     33 F         138.9458  146.0120  162.0317 F       1  UNL1       -0.2028
     34 C         140.3665  144.6482  163.7263 C.ar    1  UNL1        0.0261
     35 C         141.6314  143.9192  164.0708 C.ar    1  UNL1        0.1002
     36 N         141.7872  143.2844  165.4209 N.ar    1  UNL1       -0.2104
     37 O         143.2079  141.9206  167.1155 O.3     1  UNL1       -0.4591
     38 C         142.1613  142.1321  168.1690 C.3     1  UNL1        0.2209
     39 C         141.3289  140.9773  168.6419 C.3     1  UNL1        0.1196
     40 C         140.1561  140.0550  168.7961 C.3     1  UNL1        0.0189
     41 C         140.0597  141.2456  167.8888 C.3     1  UNL1        0.0189
     42 N         143.2893  139.6388  170.4763 N.1     1  UNL1       -0.1958
     43 C         142.3091  140.3081  169.5591 C.1     1  UNL1        0.0748
@<TRIPOS>BOND
     1    42    43    3
     2    43    39    1
     3    39    38    1
     4    38    37    1
     5    37    26    1
     6    26    27   ar
     7    27    28   ar
     8    28    29   ar
     9    29    30   ar
    10    30    31   ar
    11    31    32   ar
    12    32    33    1
    13    32    34   ar
    14    34    25    1
    15    25    24    1
    16    24     1    1
    17     1     2    1
    18     2     3    1
    19     3     4    1
    20     4     9    1
    21     9    11    1
    22    11    12    1
    23    12    13   ar
    24    13    14   ar
    25    14    15   ar
    26    15    16   ar
    27    16    17   ar
    28    16    18    1
    29    18    19   am
    30    19    20    2
    31    19    21    1
    32    21    22    1
    33     4     5    1
    34     5     6    1
    35     4     7    1
    36     7     8    1
    37    34    35   ar
    38    35    36   ar
    39    39    40    1
    40    40    41    1
    41    41    39    1
    42    36    26   ar
    43    35    29   ar
    44     6     1    1
    45     8     1    1
    46    17    12   ar
    47    22    15    1
    48     9    10    1
    49    18    23    1
@<TRIPOS>MOLECULE
*****
 43 49 0 0 0
SMALL
GASTEIGER

@<TRIPOS>ATOM
      1 C         144.1660  141.5794  163.7286 C.3     1  UNL1        0.0932
      2 C         143.5633  142.3846  164.8414 C.3     1  UNL1        0.0286
      3 C         142.8886  143.6905  164.5421 C.3     1  UNL1        0.0193
      4 C         142.8167  144.1912  163.1300 C.3     1  UNL1        0.0700
      5 C         143.4195  143.3859  162.0171 C.3     1  UNL1        0.0193
      6 C         144.0941  142.0801  162.3164 C.3     1  UNL1        0.0286
      7 C         143.1967  143.4698  163.2449 C.3     1  UNL1        0.1562
      8 O         143.8067  142.2890  163.5156 O.3     1  UNL1       -0.3572
      9 N         142.1421  145.4970  162.8306 N.3     1  UNL1       -0.2926
     10 H         142.5718  145.8624  161.9808 H       1  UNL1        0.1236
     11 C         140.6578  145.5433  162.6198 C.3     1  UNL1        0.1152
     12 C         139.8840  144.2693  162.4514 C.ar    1  UNL1        0.0765
     13 C         139.2223  143.6315  163.6369 C.ar    1  UNL1        0.0193
     14 C         138.4486  142.3575  163.4686 C.ar    1  UNL1        0.0411
     15 C         138.3366  141.7214  162.1148 C.ar    1  UNL1        0.1708
     16 C         138.9984  142.3592  160.9294 C.ar    1  UNL1        0.1682
     17 N         139.7721  143.6331  161.0977 N.ar    1  UNL1       -0.2304
     18 N         138.8864  141.7230  159.5755 N.am    1  UNL1       -0.2639
     19 C         138.1127  140.4490  159.4072 C.2     1  UNL1        0.2718
     20 O         138.0007  139.8128  158.0534 O.2     1  UNL1       -0.2707
     21 C         137.4509  139.8112  160.5927 C.3     1  UNL1        0.2898
     22 O         137.5629  140.4474  161.9464 O.3     1  UNL1       -0.4628
     23 H         139.3207  142.1416  158.7975 H       1  UNL1        0.1565
     24 C         144.8406  140.2735  164.0279 C.3     1  UNL1        0.0320
     25 C         144.0494  139.1340  164.5983 C.3     1  UNL1        0.0327
     26 C         140.2667  140.0186  166.8697 C.ar    1  UNL1        0.2249
     27 C         138.9357  139.6598  166.2786 C.ar    1  UNL1        0.0593
     28 C         138.8655  139.0061  164.9304 C.ar    1  UNL1        0.0254
     29 C         140.1263  138.7112  164.1733 C.ar    1  UNL1        0.0990
     30 N         140.0561  138.0575  162.8250 N.ar    1  UNL1       -0.2400
     31 C         141.3169  137.7626  162.0679 C.ar    1  UNL1        0.1281
     32 C         142.6481  138.1215  162.6590 C.ar    1  UNL1        0.1566
     33 F         143.9090  137.8266  161.9019 F       1  UNL1       -0.2028
     34 C         142.7183  138.7752  164.0072 C.ar    1  UNL1        0.0261
     35 C         141.4574  139.0700  164.7643 C.ar    1  UNL1        0.1002
     36 N         141.5276  139.7238  166.1125 N.ar    1  UNL1       -0.2104
     37 O         140.3370  140.6724  168.2179 O.3     1  UNL1       -0.4591
     38 C         140.9854  142.0168  168.3667 C.3     1  UNL1        0.2209
     39 C         142.1149  142.2015  169.3363 C.3     1  UNL1        0.1196
     40 C         143.5077  142.4009  169.8564 C.3     1  UNL1        0.0189
     41 C         143.2649  142.3078  168.3791 C.3     1  UNL1        0.0189
     42 N         140.5994  142.1172  171.9239 N.1     1  UNL1       -0.1958
     43 C         141.3571  142.1594  170.6301 C.1     1  UNL1        0.0748
@<TRIPOS>BOND
     1    42    43    3
     2    43    39    1
     3    39    38    1
     4    38    37    1
     5    37    26    1
     6    26    27   ar
     7    27    28   ar
     8    28    29   ar
     9    29    30   ar
    10    30    31   ar
    11    31    32   ar
    12    32    33    1
    13    32    34   ar
    14    34    25    1
    15    25    24    1
    16    24     1    1
    17     1     2    1
    18     2     3    1
    19     3     4    1
    20     4     9    1
    21     9    11    1
    22    11    12    1
    23    12    13   ar
    24    13    14   ar
    25    14    15   ar
    26    15    16   ar
    27    16    17   ar
    28    16    18    1
    29    18    19   am
    30    19    20    2
    31    19    21    1
    32    21    22    1
    33     4     5    1
    34     5     6    1
    35     4     7    1
    36     7     8    1
    37    34    35   ar
    38    35    36   ar
    39    39    40    1
    40    40    41    1
    41    41    39    1
    42    36    26   ar
    43    35    29   ar
    44     6     1    1
    45     8     1    1
    46    17    12   ar
    47    22    15    1
    48     9    10    1
    49    18    23    1
@<TRIPOS>MOLECULE
*****
 43 49 0 0 0
SMALL
GASTEIGER

@<TRIPOS>ATOM
      1 C         141.9005  138.0518  164.5263 C.3     1  UNL1        0.0932
      2 C         140.4909  137.8831  165.0105 C.3     1  UNL1        0.0286
      3 C         139.3752  137.7047  164.0238 C.3     1  UNL1        0.0193
      4 C         139.6693  137.6950  162.5529 C.3     1  UNL1        0.0700
      5 C         141.0790  137.8636  162.0688 C.3     1  UNL1        0.0193
      6 C         142.1946  138.0420  163.0555 C.3     1  UNL1        0.0286
      7 C         140.3136  137.7958  163.0556 C.3     1  UNL1        0.1562
      8 O         141.3224  137.9571  163.9478 O.3     1  UNL1       -0.3572
      9 N         138.5537  137.5166  161.5663 N.3     1  UNL1       -0.2926
     10 H         138.1200  136.6165  161.7717 H       1  UNL1        0.1236
     11 C         137.4457  138.5252  161.4965 C.3     1  UNL1        0.1152
     12 C         137.7603  139.9905  161.5603 C.ar    1  UNL1        0.0765
     13 C         138.1621  140.7262  160.3164 C.ar    1  UNL1        0.0193
     14 C         138.4766  142.1914  160.3802 C.ar    1  UNL1        0.0411
     15 C         138.3894  142.9210  161.6879 C.ar    1  UNL1        0.1708
     16 C         137.9876  142.1853  162.9318 C.ar    1  UNL1        0.1682
     17 N         137.6731  140.7201  162.8680 N.ar    1  UNL1       -0.2304
     18 N         137.9004  142.9149  164.2395 N.am    1  UNL1       -0.2639
     19 C         138.2150  144.3802  164.3033 C.2     1  UNL1        0.2718
     20 O         138.1278  145.1098  165.6110 O.2     1  UNL1       -0.2707
     21 C         138.6168  145.1159  163.0594 C.3     1  UNL1        0.2898
     22 O         138.7040  144.3863  161.7517 O.3     1  UNL1       -0.4628
     23 H         137.6367  142.4321  165.0560 H       1  UNL1        0.1565
     24 C         143.0162  138.2302  165.5130 C.3     1  UNL1        0.0320
     25 C         143.5235  139.6055  165.8309 C.3     1  UNL1        0.0327
     26 C         143.7285  143.1497  163.0656 C.ar    1  UNL1        0.2249
     27 C         142.7631  144.2859  163.2298 C.ar    1  UNL1        0.0593
     28 C         141.7293  144.2406  164.3156 C.ar    1  UNL1        0.0254
     29 C         141.6609  143.0592  165.2374 C.ar    1  UNL1        0.0990
     30 N         140.6271  143.0140  166.3233 N.ar    1  UNL1       -0.2400
     31 C         140.5587  141.8326  167.2451 C.ar    1  UNL1        0.1281
     32 C         141.5243  140.6964  167.0809 C.ar    1  UNL1        0.1566
     33 F         141.4559  139.5150  168.0026 F       1  UNL1       -0.2028
     34 C         142.5581  140.7417  165.9950 C.ar    1  UNL1        0.0261
     35 C         142.6264  141.9231  165.0733 C.ar    1  UNL1        0.1002
     36 N         143.6602  141.9683  163.9874 N.ar    1  UNL1       -0.2104
     37 O         144.7624  143.1949  161.9797 O.3     1  UNL1       -0.4591
     38 C         144.6179  142.3202  160.7698 C.3     1  UNL1        0.2209
     39 C         143.2527  141.9586  160.2644 C.3     1  UNL1        0.1196
     40 C         142.0434  141.1332  159.9382 C.3     1  UNL1        0.0189
     41 C         143.2275  140.4980  160.6048 C.3     1  UNL1        0.0189
     42 N         142.3551  144.6287  159.2325 N.1     1  UNL1       -0.1958
     43 C         142.8039  143.2937  159.7485 C.1     1  UNL1        0.0748
@<TRIPOS>BOND
     1    42    43    3
     2    43    39    1
     3    39    38    1
     4    38    37    1
     5    37    26    1
     6    26    27   ar
     7    27    28   ar
     8    28    29   ar
     9    29    30   ar
    10    30    31   ar
    11    31    32   ar
    12    32    33    1
    13    32    34   ar
    14    34    25    1
    15    25    24    1
    16    24     1    1
    17     1     2    1
    18     2     3    1
    19     3     4    1
    20     4     9    1
    21     9    11    1
    22    11    12    1
    23    12    13   ar
    24    13    14   ar
    25    14    15   ar
    26    15    16   ar
    27    16    17   ar
    28    16    18    1
    29    18    19   am
    30    19    20    2
    31    19    21    1
    32    21    22    1
    33     4     5    1
    34     5     6    1
    35     4     7    1
    36     7     8    1
    37    34    35   ar
    38    35    36   ar
    39    39    40    1
    40    40    41    1
    41    41    39    1
    42    36    26   ar
    43    35    29   ar
    44     6     1    1
    45     8     1    1
    46    17    12   ar
    47    22    15    1
    48     9    10    1
    49    18    23    1
@<TRIPOS>MOLECULE
*****
 43 49 0 0 0
SMALL
GASTEIGER

@<TRIPOS>ATOM
      1 C         143.2669  138.6356  163.2094 C.3     1  UNL1        0.0932
      2 C         142.4379  138.3030  164.4145 C.3     1  UNL1        0.0286
      3 C         141.0333  137.8047  164.2444 C.3     1  UNL1        0.0193
      4 C         140.4577  137.6390  162.8691 C.3     1  UNL1        0.0700
      5 C         141.2868  137.9716  161.6640 C.3     1  UNL1        0.0193
      6 C         142.6913  138.4698  161.8342 C.3     1  UNL1        0.0286
      7 C         141.2322  137.9152  162.9122 C.3     1  UNL1        0.1562
      8 O         142.5022  138.3658  163.0661 O.3     1  UNL1       -0.3572
      9 N         139.0532  137.1407  162.6989 N.3     1  UNL1       -0.2926
     10 H         138.6385  137.1053  163.6302 H       1  UNL1        0.1236
     11 C         138.0921  137.8907  161.8251 C.3     1  UNL1        0.1152
     12 C         138.1071  139.3906  161.8085 C.ar    1  UNL1        0.0765
     13 C         138.4003  140.1236  160.5331 C.ar    1  UNL1        0.0193
     14 C         138.4153  141.6234  160.5165 C.ar    1  UNL1        0.0411
     15 C         138.1372  142.3902  161.7753 C.ar    1  UNL1        0.1708
     16 C         137.8440  141.6572  163.0507 C.ar    1  UNL1        0.1682
     17 N         137.8289  140.1574  163.0673 N.ar    1  UNL1       -0.2304
     18 N         137.5658  142.4241  164.3095 N.am    1  UNL1       -0.2639
     19 C         137.5808  143.9239  164.2929 C.2     1  UNL1        0.2718
     20 O         137.3026  144.6908  165.5517 O.2     1  UNL1       -0.2707
     21 C         137.8740  144.6569  163.0175 C.3     1  UNL1        0.2898
     22 O         138.1522  143.8901  161.7587 O.3     1  UNL1       -0.4628
     23 H         137.3733  141.9430  165.1466 H       1  UNL1        0.1565
     24 C         144.6715  139.1339  163.3796 C.3     1  UNL1        0.0320
     25 C         144.9271  140.4256  164.0979 C.3     1  UNL1        0.0327
     26 C         141.3581  141.5366  166.6034 C.ar    1  UNL1        0.2249
     27 C         140.5533  142.7559  166.2634 C.ar    1  UNL1        0.0593
     28 C         140.9382  143.6048  165.0882 C.ar    1  UNL1        0.0254
     29 C         142.1279  143.2345  164.2531 C.ar    1  UNL1        0.0990
     30 N         142.5128  144.0835  163.0778 N.ar    1  UNL1       -0.2400
     31 C         143.7025  143.7132  162.2427 C.ar    1  UNL1        0.1281
     32 C         144.5073  142.4938  162.5827 C.ar    1  UNL1        0.1566
     33 F         145.6970  142.1235  161.7476 F       1  UNL1       -0.2028
     34 C         144.1223  141.6449  163.7579 C.ar    1  UNL1        0.0261
     35 C         142.9327  142.0152  164.5931 C.ar    1  UNL1        0.1002
     36 N         142.5477  141.1663  165.7682 N.ar    1  UNL1       -0.2104
     37 O         140.9732  140.6876  167.7786 O.3     1  UNL1       -0.4591
     38 C         141.3085  141.1365  169.1700 C.3     1  UNL1        0.2209
     39 C         140.3264  141.9600  169.9496 C.3     1  UNL1        0.1196
     40 C         139.7241  143.1341  170.6627 C.3     1  UNL1        0.0189
     41 C         141.0783  143.2555  170.0292 C.3     1  UNL1        0.0189
     42 N         138.1410  139.9407  170.3318 N.1     1  UNL1       -0.1958
     43 C         139.2337  140.9503  170.1406 C.1     1  UNL1        0.0748
@<TRIPOS>BOND
     1    42    43    3
     2    43    39    1
     3    39    38    1
     4    38    37    1
     5    37    26    1
     6    26    27   ar
     7    27    28   ar
     8    28    29   ar
     9    29    30   ar
    10    30    31   ar
    11    31    32   ar
    12    32    33    1
    13    32    34   ar
    14    34    25    1
    15    25    24    1
    16    24     1    1
    17     1     2    1
    18     2     3    1
    19     3     4    1
    20     4     9    1
    21     9    11    1
    22    11    12    1
    23    12    13   ar
    24    13    14   ar
    25    14    15   ar
    26    15    16   ar
    27    16    17   ar
    28    16    18    1
    29    18    19   am
    30    19    20    2
    31    19    21    1
    32    21    22    1
    33     4     5    1
    34     5     6    1
    35     4     7    1
    36     7     8    1
    37    34    35   ar
    38    35    36   ar
    39    39    40    1
    40    40    41    1
    41    41    39    1
    42    36    26   ar
    43    35    29   ar
    44     6     1    1
    45     8     1    1
    46    17    12   ar
    47    22    15    1
    48     9    10    1
    49    18    23    1
@<TRIPOS>MOLECULE
*****
 43 49 0 0 0
SMALL
GASTEIGER

@<TRIPOS>ATOM
      1 C         138.1015  139.8535  162.8536 C.3     1  UNL1        0.0932
      2 C         138.0432  140.5577  161.5305 C.3     1  UNL1        0.0286
      3 C         137.8977  142.0498  161.4807 C.3     1  UNL1        0.0193
      4 C         137.8106  142.8377  162.7541 C.3     1  UNL1        0.0700
      5 C         137.8690  142.1335  164.0773 C.3     1  UNL1        0.0193
      6 C         138.0144  140.6414  164.1270 C.3     1  UNL1        0.0286
      7 C         137.8898  142.0218  162.8319 C.3     1  UNL1        0.1562
      8 O         138.0213  140.6726  162.8768 O.3     1  UNL1       -0.3572
      9 N         137.6652  144.3298  162.7044 N.3     1  UNL1       -0.2926
     10 H         137.1589  144.6045  163.5462 H       1  UNL1        0.1236
     11 C         138.8846  145.2001  162.6292 C.3     1  UNL1        0.1152
     12 C         140.1115  144.7122  161.9172 C.ar    1  UNL1        0.0765
     13 C         140.2218  144.8567  160.4283 C.ar    1  UNL1        0.0193
     14 C         141.4486  144.3689  159.7163 C.ar    1  UNL1        0.0411
     15 C         142.5650  143.7366  160.4932 C.ar    1  UNL1        0.1708
     16 C         142.4547  143.5921  161.9822 C.ar    1  UNL1        0.1682
     17 N         141.2279  144.0799  162.6942 N.ar    1  UNL1       -0.2304
     18 N         143.5712  142.9598  162.7591 N.am    1  UNL1       -0.2639
     19 C         144.7980  142.4720  162.0471 C.2     1  UNL1        0.2718
     20 O         145.9146  141.8397  162.8241 O.2     1  UNL1       -0.2707
     21 C         144.9084  142.6165  160.5582 C.3     1  UNL1        0.2898
     22 O         143.7919  143.2488  159.7812 O.3     1  UNL1       -0.4628
     23 H         143.4988  142.8650  163.7364 H       1  UNL1        0.1565
     24 C         138.2470  138.3614  162.9034 C.3     1  UNL1        0.0320
     25 C         139.5248  137.7484  163.3946 C.3     1  UNL1        0.0327
     26 C         143.1045  138.8158  165.9039 C.ar    1  UNL1        0.2249
     27 C         144.4058  139.1645  165.2442 C.ar    1  UNL1        0.0593
     28 C         144.5138  139.1573  163.7482 C.ar    1  UNL1        0.0254
     29 C         143.3205  138.8015  162.9118 C.ar    1  UNL1        0.0990
     30 N         143.4286  138.7944  161.4156 N.ar    1  UNL1       -0.2400
     31 C         142.2353  138.4386  160.5792 C.ar    1  UNL1        0.1281
     32 C         140.9340  138.0899  161.2389 C.ar    1  UNL1        0.1566
     33 F         139.7408  137.7341  160.4025 F       1  UNL1       -0.2028
     34 C         140.8261  138.0970  162.7350 C.ar    1  UNL1        0.0261
     35 C         142.0193  138.4528  163.5714 C.ar    1  UNL1        0.1002
     36 N         141.9113  138.4600  165.0675 N.ar    1  UNL1       -0.2104
     37 O         142.9965  138.8229  167.4000 O.3     1  UNL1       -0.4591
     38 C         142.1907  139.8842  168.0887 C.3     1  UNL1        0.2209
     39 C         142.8336  141.1847  168.4703 C.3     1  UNL1        0.1196
     40 C         143.4891  142.2397  169.3113 C.3     1  UNL1        0.0189
     41 C         143.0934  140.9297  169.9254 C.3     1  UNL1        0.0189
     42 N         142.7603  142.5980  165.8251 N.1     1  UNL1       -0.1958
     43 C         142.7969  141.8913  167.1477 C.1     1  UNL1        0.0748
@<TRIPOS>BOND
     1    42    43    3
     2    43    39    1
     3    39    38    1
     4    38    37    1
     5    37    26    1
     6    26    27   ar
     7    27    28   ar
     8    28    29   ar
     9    29    30   ar
    10    30    31   ar
    11    31    32   ar
    12    32    33    1
    13    32    34   ar
    14    34    25    1
    15    25    24    1
    16    24     1    1
    17     1     2    1
    18     2     3    1
    19     3     4    1
    20     4     9    1
    21     9    11    1
    22    11    12    1
    23    12    13   ar
    24    13    14   ar
    25    14    15   ar
    26    15    16   ar
    27    16    17   ar
    28    16    18    1
    29    18    19   am
    30    19    20    2
    31    19    21    1
    32    21    22    1
    33     4     5    1
    34     5     6    1
    35     4     7    1
    36     7     8    1
    37    34    35   ar
    38    35    36   ar
    39    39    40    1
    40    40    41    1
    41    41    39    1
    42    36    26   ar
    43    35    29   ar
    44     6     1    1
    45     8     1    1
    46    17    12   ar
    47    22    15    1
    48     9    10    1
    49    18    23    1
@<TRIPOS>MOLECULE
*****
 43 49 0 0 0
SMALL
GASTEIGER

@<TRIPOS>ATOM
      1 C         143.3174  140.0590  159.6614 C.3     1  UNL1        0.0932
      2 C         144.0222  139.7138  160.9397 C.3     1  UNL1        0.0286
      3 C         143.4337  138.6937  161.8688 C.3     1  UNL1        0.0193
      4 C         142.1405  138.0187  161.5195 C.3     1  UNL1        0.0700
      5 C         141.4357  138.3639  160.2411 C.3     1  UNL1        0.0193
      6 C         142.0242  139.3840  159.3121 C.3     1  UNL1        0.0286
      7 C         142.4241  138.5712  160.9789 C.3     1  UNL1        0.1562
      8 O         142.9562  139.4937  160.1388 O.3     1  UNL1       -0.3572
      9 N         141.5521  136.9986  162.4485 N.3     1  UNL1       -0.2926
     10 H         142.3347  136.5027  162.8751 H       1  UNL1        0.1236
     11 C         140.6533  137.4336  163.5678 C.3     1  UNL1        0.1152
     12 C         139.7768  138.6394  163.4004 C.ar    1  UNL1        0.0765
     13 C         138.6395  138.6099  162.4228 C.ar    1  UNL1        0.0193
     14 C         137.7630  139.8155  162.2554 C.ar    1  UNL1        0.0411
     15 C         138.0237  141.0506  163.0656 C.ar    1  UNL1        0.1708
     16 C         139.1609  141.0801  164.0433 C.ar    1  UNL1        0.1682
     17 N         140.0375  139.8744  164.2107 N.ar    1  UNL1       -0.2304
     18 N         139.4216  142.3152  164.8536 N.am    1  UNL1       -0.2639
     19 C         138.5451  143.5209  164.6862 C.2     1  UNL1        0.2718
     20 O         138.8057  144.7560  165.4965 O.2     1  UNL1       -0.2707
     21 C         137.4078  143.4914  163.7085 C.3     1  UNL1        0.2898
     22 O         137.1471  142.2564  162.8982 O.3     1  UNL1       -0.4628
     23 H         140.1680  142.3346  165.4953 H       1  UNL1        0.1565
     24 C         143.9058  141.0791  158.7324 C.3     1  UNL1        0.0320
     25 C         143.8073  142.5391  159.0622 C.3     1  UNL1        0.0327
     26 C         143.1222  144.6131  162.9966 C.ar    1  UNL1        0.2249
     27 C         141.7867  145.2251  163.2992 C.ar    1  UNL1        0.0593
     28 C         140.6795  145.1458  162.2904 C.ar    1  UNL1        0.0254
     29 C         140.9078  144.4545  160.9790 C.ar    1  UNL1        0.0990
     30 N         139.8005  144.3753  159.9701 N.ar    1  UNL1       -0.2400
     31 C         140.0288  143.6840  158.6587 C.ar    1  UNL1        0.1281
     32 C         141.3645  143.0719  158.3560 C.ar    1  UNL1        0.1566
     33 F         141.5928  142.3806  157.0446 F       1  UNL1       -0.2028
     34 C         142.4717  143.1512  159.3648 C.ar    1  UNL1        0.0261
     35 C         142.2434  143.8425  160.6763 C.ar    1  UNL1        0.1002
     36 N         143.3506  143.9217  161.6851 N.ar    1  UNL1       -0.2104
     37 O         144.2296  144.6923  164.0054 O.3     1  UNL1       -0.4591
     38 C         144.1614  143.8727  165.2598 C.3     1  UNL1        0.2209
     39 C         143.9262  142.3935  165.1774 C.3     1  UNL1        0.1196
     40 C         143.3140  141.0475  165.4291 C.3     1  UNL1        0.0189
     41 C         142.7590  142.2631  166.1104 C.3     1  UNL1        0.0189
     42 N         146.0975  141.6274  163.2544 N.1     1  UNL1       -0.1958
     43 C         145.0118  142.0104  164.2159 C.1     1  UNL1        0.0748
@<TRIPOS>BOND
     1    42    43    3
     2    43    39    1
     3    39    38    1
     4    38    37    1
     5    37    26    1
     6    26    27   ar
     7    27    28   ar
     8    28    29   ar
     9    29    30   ar
    10    30    31   ar
    11    31    32   ar
    12    32    33    1
    13    32    34   ar
    14    34    25    1
    15    25    24    1
    16    24     1    1
    17     1     2    1
    18     2     3    1
    19     3     4    1
    20     4     9    1
    21     9    11    1
    22    11    12    1
    23    12    13   ar
    24    13    14   ar
    25    14    15   ar
    26    15    16   ar
    27    16    17   ar
    28    16    18    1
    29    18    19   am
    30    19    20    2
    31    19    21    1
    32    21    22    1
    33     4     5    1
    34     5     6    1
    35     4     7    1
    36     7     8    1
    37    34    35   ar
    38    35    36   ar
    39    39    40    1
    40    40    41    1
    41    41    39    1
    42    36    26   ar
    43    35    29   ar
    44     6     1    1
    45     8     1    1
    46    17    12   ar
    47    22    15    1
    48     9    10    1
    49    18    23    1
@<TRIPOS>MOLECULE
*****
 43 49 0 0 0
SMALL
GASTEIGER

@<TRIPOS>ATOM
      1 C         143.2243  138.6658  163.4722 C.3     1  UNL1        0.0932
      2 C         142.1732  138.3153  164.4833 C.3     1  UNL1        0.0286
      3 C         140.8090  137.8874  164.0296 C.3     1  UNL1        0.0193
      4 C         140.4959  137.8099  162.5647 C.3     1  UNL1        0.0700
      5 C         141.5470  138.1604  161.5535 C.3     1  UNL1        0.0193
      6 C         142.9112  138.5883  162.0073 C.3     1  UNL1        0.0286
      7 C         141.2577  138.0497  162.7652 C.3     1  UNL1        0.1562
      8 O         142.4912  138.4366  163.1755 O.3     1  UNL1       -0.3572
      9 N         139.1318  137.3820  162.1109 N.3     1  UNL1       -0.2926
     10 H         138.6597  136.9904  162.9259 H       1  UNL1        0.1236
     11 C         138.1935  138.3845  161.5072 C.3     1  UNL1        0.1152
     12 C         138.3113  139.8353  161.8698 C.ar    1  UNL1        0.0765
     13 C         137.6387  140.3566  163.1051 C.ar    1  UNL1        0.0193
     14 C         137.7565  141.8073  163.4677 C.ar    1  UNL1        0.0411
     15 C         138.5467  142.7367  162.5950 C.ar    1  UNL1        0.1708
     16 C         139.2192  142.2154  161.3596 C.ar    1  UNL1        0.1682
     17 N         139.1015  140.7647  160.9971 N.ar    1  UNL1       -0.2304
     18 N         140.0095  143.1449  160.4869 N.am    1  UNL1       -0.2639
     19 C         140.1273  144.5956  160.8495 C.2     1  UNL1        0.2718
     20 O         140.9175  145.5251  159.9768 O.2     1  UNL1       -0.2707
     21 C         139.4547  145.1169  162.0848 C.3     1  UNL1        0.2898
     22 O         138.6645  144.1875  162.9575 O.3     1  UNL1       -0.4628
     23 H         140.4509  142.8028  159.6762 H       1  UNL1        0.1565
     24 C         144.5885  139.0938  163.9259 C.3     1  UNL1        0.0320
     25 C         144.7545  140.3611  164.7110 C.3     1  UNL1        0.0327
     26 C         141.0024  141.5715  166.8805 C.ar    1  UNL1        0.2249
     27 C         140.2646  142.8108  166.4688 C.ar    1  UNL1        0.0593
     28 C         140.7775  143.6467  165.3338 C.ar    1  UNL1        0.0254
     29 C         142.0282  143.2433  164.6106 C.ar    1  UNL1        0.0990
     30 N         142.5410  144.0793  163.4756 N.ar    1  UNL1       -0.2400
     31 C         143.7917  143.6758  162.7524 C.ar    1  UNL1        0.1281
     32 C         144.5296  142.4364  163.1643 C.ar    1  UNL1        0.1566
     33 F         145.7802  142.0329  162.4411 F       1  UNL1       -0.2028
     34 C         144.0167  141.6005  164.2992 C.ar    1  UNL1        0.0261
     35 C         142.7660  142.0039  165.0224 C.ar    1  UNL1        0.1002
     36 N         142.2531  141.1680  166.1573 N.ar    1  UNL1       -0.2104
     37 O         140.4895  140.7355  168.0155 O.3     1  UNL1       -0.4591
     38 C         140.8530  141.0848  169.4283 C.3     1  UNL1        0.2209
     39 C         141.9328  142.0904  169.6982 C.3     1  UNL1        0.1196
     40 C         143.3025  142.6692  169.8953 C.3     1  UNL1        0.0189
     41 C         143.1424  141.2110  169.5825 C.3     1  UNL1        0.0189
     42 N         140.2635  144.5476  170.1171 N.1     1  UNL1       -0.1958
     43 C         141.0981  143.3190  169.9075 C.1     1  UNL1        0.0748
@<TRIPOS>BOND
     1    42    43    3
     2    43    39    1
     3    39    38    1
     4    38    37    1
     5    37    26    1
     6    26    27   ar
     7    27    28   ar
     8    28    29   ar
     9    29    30   ar
    10    30    31   ar
    11    31    32   ar
    12    32    33    1
    13    32    34   ar
    14    34    25    1
    15    25    24    1
    16    24     1    1
    17     1     2    1
    18     2     3    1
    19     3     4    1
    20     4     9    1
    21     9    11    1
    22    11    12    1
    23    12    13   ar
    24    13    14   ar
    25    14    15   ar
    26    15    16   ar
    27    16    17   ar
    28    16    18    1
    29    18    19   am
    30    19    20    2
    31    19    21    1
    32    21    22    1
    33     4     5    1
    34     5     6    1
    35     4     7    1
    36     7     8    1
    37    34    35   ar
    38    35    36   ar
    39    39    40    1
    40    40    41    1
    41    41    39    1
    42    36    26   ar
    43    35    29   ar
    44     6     1    1
    45     8     1    1
    46    17    12   ar
    47    22    15    1
    48     9    10    1
    49    18    23    1
