@<TRIPOS>MOLECULE
*****
 34 37 0 0 0
SMALL
GASTEIGER

@<TRIPOS>ATOM
      1 N         138.8874  140.1467  165.8178 N.3     1  UNL1       -0.2691
      2 C         138.0776  140.9409  164.8362 C.3     1  UNL1        0.0724
      3 C         138.5294  142.3112  164.4262 C.3     1  UNL1        0.0188
      4 C         139.7908  142.8874  164.9978 C.3     1  UNL1        0.0188
      5 C         140.6006  142.0932  165.9794 C.3     1  UNL1        0.0188
      6 C         140.1489  140.7228  166.3894 C.3     1  UNL1        0.0724
      7 C         138.4356  138.7764  166.2278 C.3     1  UNL1        0.0987
      8 C         137.7459  138.5768  167.5449 C.2     1  UNL1        0.0652
      9 O         136.5962  137.6193  167.6519 O.co2   1  UNL1       -0.5478
     10 O         138.2058  139.3348  168.7548 O.co2   1  UNL1       -0.5478
     11 C         138.6736  137.6056  165.3209 C.3     1  UNL1        0.0480
     12 C         139.3785  138.3641  160.2290 C.3     1  UNL1        0.0310
     13 C         139.9445  138.1231  161.5970 C.ar    1  UNL1       -0.0222
     14 C         141.4288  138.0203  161.7872 C.ar    1  UNL1       -0.0043
     15 C         141.9947  137.7793  163.1553 C.ar    1  UNL1       -0.0006
     16 C         141.0764  137.6410  164.3331 C.ar    1  UNL1       -0.0042
     17 C         139.5921  137.7438  164.1430 C.ar    1  UNL1       -0.0208
     18 C         139.0261  137.9848  162.7749 C.ar    1  UNL1       -0.0085
     19 C         140.2425  144.2577  164.5877 C.3     1  UNL1        0.0721
     20 N         140.5891  144.5357  163.1551 N.3     1  UNL1       -0.2724
     21 C         139.7739  145.5142  162.3625 C.3     1  UNL1        0.0758
     22 C         140.1205  145.7922  160.9298 C.3     1  UNL1        0.0609
     23 C         141.2823  145.0919  160.2897 C.3     1  UNL1        0.1687
     24 C         142.0975  144.1135  161.0822 C.3     1  UNL1        0.0609
     25 C         141.7509  143.8354  162.5150 C.3     1  UNL1        0.0758
     26 O         141.6289  145.3699  158.8571 O.3     1  UNL1       -0.4790
     27 C         140.5837  145.2251  157.7908 C.ar    1  UNL1        0.1393
     28 C         139.9142  143.9008  157.5719 C.ar    1  UNL1        0.0378
     29 C         138.8691  143.7560  156.5057 C.ar    1  UNL1        0.0154
     30 C         138.4935  144.9355  155.6584 C.ar    1  UNL1        0.0684
     31 CL        137.4484  144.7906  154.5923 Cl      1  UNL1       -0.0814
     32 C         139.1631  146.2598  155.8774 C.ar    1  UNL1        0.0712
     33 CL        138.7875  147.4392  155.0302 Cl      1  UNL1       -0.0813
     34 C         140.2082  146.4046  156.9436 C.ar    1  UNL1        0.0491
@<TRIPOS>UNITY_ATOM_ATTR
9 1
charge -1
@<TRIPOS>BOND
     1    12    13    1
     2    13    14   ar
     3    14    15   ar
     4    15    16   ar
     5    16    17   ar
     6    17    11    1
     7     7    11    1
     8     7     8    1
     9     8     9   ar
    10     8    10   ar
    11     7     1    1
    12     1     2    1
    13     2     3    1
    14     3     4    1
    15     4    19    1
    16    19    20    1
    17    20    21    1
    18    21    22    1
    19    22    23    1
    20    23    26    1
    21    26    27    1
    22    27    28   ar
    23    28    29   ar
    24    29    30   ar
    25    30    31    1
    26    30    32   ar
    27    32    33    1
    28    32    34   ar
    29    23    24    1
    30    24    25    1
    31     4     5    1
    32     5     6    1
    33    17    18   ar
    34    18    13   ar
    35     6     1    1
    36    25    20    1
    37    34    27   ar
@<TRIPOS>MOLECULE
*****
 34 37 0 0 0
SMALL
GASTEIGER

@<TRIPOS>ATOM
      1 N         140.6481  140.6014  167.3101 N.3     1  UNL1       -0.2691
      2 C         140.6075  142.0619  166.9708 C.3     1  UNL1        0.0724
      3 C         141.7376  142.6862  166.2071 C.3     1  UNL1        0.0188
      4 C         142.9083  141.8499  165.7827 C.3     1  UNL1        0.0188
      5 C         142.9489  140.3893  166.1221 C.3     1  UNL1        0.0188
      6 C         141.8188  139.7651  166.8857 C.3     1  UNL1        0.0724
      7 C         139.5180  139.9772  168.0738 C.3     1  UNL1        0.0987
      8 C         139.5079  140.0274  169.5729 C.2     1  UNL1        0.0652
      9 O         138.3952  140.7306  170.2923 O.co2   1  UNL1       -0.5478
     10 O         140.6104  139.3743  170.3527 O.co2   1  UNL1       -0.5478
     11 C         138.3981  139.3028  167.3383 C.3     1  UNL1        0.0480
     12 C         137.6261  141.2121  162.5677 C.3     1  UNL1        0.0310
     13 C         138.0818  140.0982  163.4631 C.ar    1  UNL1       -0.0222
     14 C         138.6072  138.8253  162.8687 C.ar    1  UNL1       -0.0043
     15 C         139.0629  137.7114  163.7640 C.ar    1  UNL1       -0.0006
     16 C         138.9932  137.8706  165.2539 C.ar    1  UNL1       -0.0042
     17 C         138.4678  139.1436  165.8484 C.ar    1  UNL1       -0.0208
     18 C         138.0121  140.2574  164.9530 C.ar    1  UNL1       -0.0085
     19 C         144.0383  142.4742  165.0190 C.3     1  UNL1        0.0721
     20 N         143.9076  142.7074  163.5431 N.3     1  UNL1       -0.2724
     21 C         142.8021  143.5732  163.0155 C.3     1  UNL1        0.0758
     22 C         142.6714  143.8064  161.5396 C.3     1  UNL1        0.0609
     23 C         143.6462  143.1737  160.5911 C.3     1  UNL1        0.1687
     24 C         144.7516  142.3079  161.1186 C.3     1  UNL1        0.0609
     25 C         144.8824  142.0747  162.5946 C.3     1  UNL1        0.0758
     26 O         143.5155  143.4069  159.1151 O.3     1  UNL1       -0.4790
     27 C         143.9212  142.3348  158.1476 C.ar    1  UNL1        0.1393
     28 C         143.0133  141.1672  157.8979 C.ar    1  UNL1        0.0378
     29 C         143.4190  140.0951  156.9304 C.ar    1  UNL1        0.0154
     30 C         144.7327  140.1907  156.2126 C.ar    1  UNL1        0.0684
     31 CL        145.1384  139.1186  155.2451 Cl      1  UNL1       -0.0814
     32 C         145.6406  141.3583  156.4623 C.ar    1  UNL1        0.0712
     33 CL        146.9542  141.4539  155.7445 Cl      1  UNL1       -0.0813
     34 C         145.2348  142.4304  157.4298 C.ar    1  UNL1        0.0491
@<TRIPOS>UNITY_ATOM_ATTR
9 1
charge -1
@<TRIPOS>BOND
     1    12    13    1
     2    13    14   ar
     3    14    15   ar
     4    15    16   ar
     5    16    17   ar
     6    17    11    1
     7     7    11    1
     8     7     8    1
     9     8     9   ar
    10     8    10   ar
    11     7     1    1
    12     1     2    1
    13     2     3    1
    14     3     4    1
    15     4    19    1
    16    19    20    1
    17    20    21    1
    18    21    22    1
    19    22    23    1
    20    23    26    1
    21    26    27    1
    22    27    28   ar
    23    28    29   ar
    24    29    30   ar
    25    30    31    1
    26    30    32   ar
    27    32    33    1
    28    32    34   ar
    29    23    24    1
    30    24    25    1
    31     4     5    1
    32     5     6    1
    33    17    18   ar
    34    18    13   ar
    35     6     1    1
    36    25    20    1
    37    34    27   ar
@<TRIPOS>MOLECULE
*****
 34 37 0 0 0
SMALL
GASTEIGER

@<TRIPOS>ATOM
      1 N         140.8584  139.5968  166.8503 N.3     1  UNL1       -0.2691
      2 C         141.8020  138.9885  165.8555 C.3     1  UNL1        0.0724
      3 C         141.2643  138.2900  164.6418 C.3     1  UNL1        0.0188
      4 C         139.7832  138.1997  164.4230 C.3     1  UNL1        0.0188
      5 C         138.8395  138.8079  165.4179 C.3     1  UNL1        0.0188
      6 C         139.3772  139.5065  166.6315 C.3     1  UNL1        0.0724
      7 C         141.3961  140.2953  168.0640 C.3     1  UNL1        0.0987
      8 C         141.5922  139.5346  169.3419 C.2     1  UNL1        0.0652
      9 O         142.8970  138.8457  169.6119 O.co2   1  UNL1       -0.5478
     10 O         140.4836  139.4628  170.3497 O.co2   1  UNL1       -0.5478
     11 C         141.7376  141.7544  167.9999 C.3     1  UNL1        0.0480
     12 C         138.5407  144.6000  165.0532 C.3     1  UNL1        0.0310
     13 C         139.8770  143.9543  165.2706 C.ar    1  UNL1       -0.0222
     14 C         140.9513  144.0857  164.2320 C.ar    1  UNL1       -0.0043
     15 C         142.2876  143.4401  164.4494 C.ar    1  UNL1       -0.0006
     16 C         142.5498  142.6630  165.7053 C.ar    1  UNL1       -0.0042
     17 C         141.4755  142.5316  166.7438 C.ar    1  UNL1       -0.0208
     18 C         140.1391  143.1772  166.5265 C.ar    1  UNL1       -0.0085
     19 C         139.2455  137.5012  163.2093 C.3     1  UNL1        0.0721
     20 N         138.9794  138.2772  161.9536 N.3     1  UNL1       -0.2724
     21 C         139.9950  138.2891  160.8498 C.3     1  UNL1        0.0758
     22 C         139.7288  139.0652  159.5941 C.3     1  UNL1        0.0609
     23 C         138.4471  139.8294  159.4421 C.3     1  UNL1        0.1687
     24 C         137.4315  139.8175  160.5459 C.3     1  UNL1        0.0609
     25 C         137.6976  139.0414  161.8017 C.3     1  UNL1        0.0758
     26 O         138.1809  140.6055  158.1864 O.3     1  UNL1       -0.4790
     27 C         138.7928  141.9622  157.9993 C.ar    1  UNL1        0.1393
     28 C         138.9288  142.5401  156.6218 C.ar    1  UNL1        0.0378
     29 C         139.5407  143.8967  156.4346 C.ar    1  UNL1        0.0154
     30 C         140.0167  144.6755  157.6250 C.ar    1  UNL1        0.0684
     31 CL        140.6286  146.0322  157.4378 Cl      1  UNL1       -0.0814
     32 C         139.8807  144.0977  159.0025 C.ar    1  UNL1        0.0712
     33 CL        140.3566  144.8764  160.1928 Cl      1  UNL1       -0.0813
     34 C         139.2688  142.7410  159.1896 C.ar    1  UNL1        0.0491
@<TRIPOS>UNITY_ATOM_ATTR
9 1
charge -1
@<TRIPOS>BOND
     1    12    13    1
     2    13    14   ar
     3    14    15   ar
     4    15    16   ar
     5    16    17   ar
     6    17    11    1
     7     7    11    1
     8     7     8    1
     9     8     9   ar
    10     8    10   ar
    11     7     1    1
    12     1     2    1
    13     2     3    1
    14     3     4    1
    15     4    19    1
    16    19    20    1
    17    20    21    1
    18    21    22    1
    19    22    23    1
    20    23    26    1
    21    26    27    1
    22    27    28   ar
    23    28    29   ar
    24    29    30   ar
    25    30    31    1
    26    30    32   ar
    27    32    33    1
    28    32    34   ar
    29    23    24    1
    30    24    25    1
    31     4     5    1
    32     5     6    1
    33    17    18   ar
    34    18    13   ar
    35     6     1    1
    36    25    20    1
    37    34    27   ar
@<TRIPOS>MOLECULE
*****
 34 37 0 0 0
SMALL
GASTEIGER

@<TRIPOS>ATOM
      1 N         139.8606  141.5964  166.9833 N.3     1  UNL1       -0.2691
      2 C         139.9750  143.0603  166.6770 C.3     1  UNL1        0.0724
      3 C         139.3973  143.6080  165.4056 C.3     1  UNL1        0.0188
      4 C         138.7052  142.6917  164.4405 C.3     1  UNL1        0.0188
      5 C         138.5907  141.2277  164.7468 C.3     1  UNL1        0.0188
      6 C         139.1684  140.6801  166.0182 C.3     1  UNL1        0.0724
      7 C         140.4382  141.0488  168.2546 C.3     1  UNL1        0.0987
      8 C         139.5496  140.8053  169.4384 C.2     1  UNL1        0.0652
      9 O         138.6455  139.6086  169.4639 O.co2   1  UNL1       -0.5478
     10 O         139.5652  141.7584  170.5965 O.co2   1  UNL1       -0.5478
     11 C         141.9044  140.7447  168.3423 C.3     1  UNL1        0.0480
     12 C         144.6501  142.3972  164.2520 C.3     1  UNL1        0.0310
     13 C         144.0576  141.2743  165.0509 C.ar    1  UNL1       -0.0222
     14 C         144.2453  139.8550  164.6035 C.ar    1  UNL1       -0.0043
     15 C         143.6528  138.7322  165.4024 C.ar    1  UNL1       -0.0006
     16 C         142.8725  139.0287  166.6486 C.ar    1  UNL1       -0.0042
     17 C         142.6847  140.4481  167.0960 C.ar    1  UNL1       -0.0208
     18 C         143.2773  141.5709  166.2971 C.ar    1  UNL1       -0.0085
     19 C         138.1275  143.2393  163.1692 C.3     1  UNL1        0.0721
     20 N         139.0263  143.8722  162.1485 N.3     1  UNL1       -0.2724
     21 C         139.2900  145.3482  162.1936 C.3     1  UNL1        0.0758
     22 C         140.1887  145.9810  161.1730 C.3     1  UNL1        0.0609
     23 C         140.8238  145.1379  160.1072 C.3     1  UNL1        0.1687
     24 C         140.5601  143.6620  160.0621 C.3     1  UNL1        0.0609
     25 C         139.6613  143.0291  161.0827 C.3     1  UNL1        0.0758
     26 O         141.7225  145.7707  159.0866 O.3     1  UNL1       -0.4790
     27 C         141.3954  145.6589  157.6269 C.ar    1  UNL1        0.1393
     28 C         142.3490  144.9715  156.6951 C.ar    1  UNL1        0.0378
     29 C         142.0219  144.8597  155.2355 C.ar    1  UNL1        0.0154
     30 C         140.7412  145.4352  154.7076 C.ar    1  UNL1        0.0684
     31 CL        140.4141  145.3233  153.2480 Cl      1  UNL1       -0.0814
     32 C         139.7876  146.1226  155.6394 C.ar    1  UNL1        0.0712
     33 CL        138.5070  146.6981  155.1115 Cl      1  UNL1       -0.0813
     34 C         140.1147  146.2344  157.0991 C.ar    1  UNL1        0.0491
@<TRIPOS>UNITY_ATOM_ATTR
9 1
charge -1
@<TRIPOS>BOND
     1    12    13    1
     2    13    14   ar
     3    14    15   ar
     4    15    16   ar
     5    16    17   ar
     6    17    11    1
     7     7    11    1
     8     7     8    1
     9     8     9   ar
    10     8    10   ar
    11     7     1    1
    12     1     2    1
    13     2     3    1
    14     3     4    1
    15     4    19    1
    16    19    20    1
    17    20    21    1
    18    21    22    1
    19    22    23    1
    20    23    26    1
    21    26    27    1
    22    27    28   ar
    23    28    29   ar
    24    29    30   ar
    25    30    31    1
    26    30    32   ar
    27    32    33    1
    28    32    34   ar
    29    23    24    1
    30    24    25    1
    31     4     5    1
    32     5     6    1
    33    17    18   ar
    34    18    13   ar
    35     6     1    1
    36    25    20    1
    37    34    27   ar
@<TRIPOS>MOLECULE
*****
 34 37 0 0 0
SMALL
GASTEIGER

@<TRIPOS>ATOM
      1 N         140.6967  139.6489  166.9074 N.3     1  UNL1       -0.2691
      2 C         141.6407  138.9933  165.9436 C.3     1  UNL1        0.0724
      3 C         141.1060  138.2876  164.7328 C.3     1  UNL1        0.0188
      4 C         139.6274  138.2375  164.4857 C.3     1  UNL1        0.0188
      5 C         138.6833  138.8931  165.4496 C.3     1  UNL1        0.0188
      6 C         139.2179  139.5988  166.6604 C.3     1  UNL1        0.0724
      7 C         141.2313  140.3546  168.1183 C.3     1  UNL1        0.0987
      8 C         141.4865  139.5874  169.3818 C.2     1  UNL1        0.0652
      9 O         140.4021  139.4527  170.4094 O.co2   1  UNL1       -0.5478
     10 O         142.8260  138.9550  169.6177 O.co2   1  UNL1       -0.5478
     11 C         141.5108  141.8273  168.0656 C.3     1  UNL1        0.0480
     12 C         144.0602  143.4587  163.8420 C.3     1  UNL1        0.0310
     13 C         142.7912  143.3587  164.6355 C.ar    1  UNL1       -0.0222
     14 C         141.5280  143.9743  164.1109 C.ar    1  UNL1       -0.0043
     15 C         140.2591  143.8743  164.9044 C.ar    1  UNL1       -0.0006
     16 C         140.2533  143.1586  166.2227 C.ar    1  UNL1       -0.0042
     17 C         141.5165  142.5430  166.7473 C.ar    1  UNL1       -0.0208
     18 C         142.7854  142.6431  165.9538 C.ar    1  UNL1       -0.0085
     19 C         139.0927  137.5318  163.2749 C.3     1  UNL1        0.0721
     20 N         138.9154  138.2809  161.9875 N.3     1  UNL1       -0.2724
     21 C         137.6677  139.0788  161.7498 C.3     1  UNL1        0.0758
     22 C         137.4903  139.8279  160.4624 C.3     1  UNL1        0.0609
     23 C         138.5607  139.7791  159.4127 C.3     1  UNL1        0.1687
     24 C         139.8084  138.9812  159.6504 C.3     1  UNL1        0.0609
     25 C         139.9858  138.2320  160.9378 C.3     1  UNL1        0.0758
     26 O         138.3834  140.5281  158.1253 O.3     1  UNL1       -0.4790
     27 C         138.9081  141.9272  157.9932 C.ar    1  UNL1        0.1393
     28 C         138.9619  142.5839  156.6457 C.ar    1  UNL1        0.0378
     29 C         139.4866  143.9829  156.5135 C.ar    1  UNL1        0.0154
     30 C         139.9575  144.7252  157.7289 C.ar    1  UNL1        0.0684
     31 CL        140.4822  146.1242  157.5968 Cl      1  UNL1       -0.0814
     32 C         139.9037  144.0685  159.0765 C.ar    1  UNL1        0.0712
     33 CL        140.3746  144.8108  160.2919 Cl      1  UNL1       -0.0813
     34 C         139.3790  142.6695  159.2086 C.ar    1  UNL1        0.0491
@<TRIPOS>UNITY_ATOM_ATTR
9 1
charge -1
@<TRIPOS>BOND
     1    12    13    1
     2    13    14   ar
     3    14    15   ar
     4    15    16   ar
     5    16    17   ar
     6    17    11    1
     7     7    11    1
     8     7     8    1
     9     8     9   ar
    10     8    10   ar
    11     7     1    1
    12     1     2    1
    13     2     3    1
    14     3     4    1
    15     4    19    1
    16    19    20    1
    17    20    21    1
    18    21    22    1
    19    22    23    1
    20    23    26    1
    21    26    27    1
    22    27    28   ar
    23    28    29   ar
    24    29    30   ar
    25    30    31    1
    26    30    32   ar
    27    32    33    1
    28    32    34   ar
    29    23    24    1
    30    24    25    1
    31     4     5    1
    32     5     6    1
    33    17    18   ar
    34    18    13   ar
    35     6     1    1
    36    25    20    1
    37    34    27   ar
@<TRIPOS>MOLECULE
*****
 34 37 0 0 0
SMALL
GASTEIGER

@<TRIPOS>ATOM
      1 N         140.1137  139.9153  167.2478 N.3     1  UNL1       -0.2691
      2 C         141.3590  139.3546  166.6277 C.3     1  UNL1        0.0724
      3 C         141.2601  138.4313  165.4496 C.3     1  UNL1        0.0188
      4 C         139.9157  138.0688  164.8917 C.3     1  UNL1        0.0188
      5 C         138.6703  138.6294  165.5119 C.3     1  UNL1        0.0188
      6 C         138.7692  139.5527  166.6900 C.3     1  UNL1        0.0724
      7 C         140.2126  140.8385  168.4259 C.3     1  UNL1        0.0987
      8 C         139.7256  140.3913  169.7723 C.2     1  UNL1        0.0652
      9 O         138.4438  140.9393  170.3262 O.co2   1  UNL1       -0.5478
     10 O         140.5202  139.3960  170.5647 O.co2   1  UNL1       -0.5478
     11 C         140.7986  142.2090  168.2576 C.3     1  UNL1        0.0480
     12 C         144.5795  142.9638  164.7740 C.3     1  UNL1        0.0310
     13 C         143.1328  143.0511  165.1603 C.ar    1  UNL1       -0.0222
     14 C         142.1297  143.6031  164.1913 C.ar    1  UNL1       -0.0043
     15 C         140.6829  143.6904  164.5776 C.ar    1  UNL1       -0.0006
     16 C         140.2392  143.2257  165.9330 C.ar    1  UNL1       -0.0042
     17 C         141.2423  142.6737  166.9021 C.ar    1  UNL1       -0.0208
     18 C         142.6891  142.5864  166.5157 C.ar    1  UNL1       -0.0085
     19 C         139.8168  137.1455  163.7137 C.3     1  UNL1        0.0721
     20 N         140.1319  137.6501  162.3368 N.3     1  UNL1       -0.2724
     21 C         139.0225  138.0809  161.4237 C.3     1  UNL1        0.0758
     22 C         139.3377  138.5855  160.0467 C.3     1  UNL1        0.0609
     23 C         140.7622  138.6594  159.5828 C.3     1  UNL1        0.1687
     24 C         141.8716  138.2286  160.4958 C.3     1  UNL1        0.0609
     25 C         141.5565  137.7240  161.8729 C.3     1  UNL1        0.0758
     26 O         141.0774  139.1640  158.2059 O.3     1  UNL1       -0.4790
     27 C         141.3910  138.1943  157.1052 C.ar    1  UNL1        0.1393
     28 C         140.2776  137.5439  156.3389 C.ar    1  UNL1        0.0378
     29 C         140.5911  136.5742  155.2383 C.ar    1  UNL1        0.0154
     30 C         142.0181  136.2549  154.9040 C.ar    1  UNL1        0.0684
     31 CL        142.3316  135.2852  153.8033 Cl      1  UNL1       -0.0814
     32 C         143.1315  136.9053  155.6702 C.ar    1  UNL1        0.0712
     33 CL        144.5585  136.5861  155.3359 Cl      1  UNL1       -0.0813
     34 C         142.8180  137.8750  156.7709 C.ar    1  UNL1        0.0491
@<TRIPOS>UNITY_ATOM_ATTR
9 1
charge -1
@<TRIPOS>BOND
     1    12    13    1
     2    13    14   ar
     3    14    15   ar
     4    15    16   ar
     5    16    17   ar
     6    17    11    1
     7     7    11    1
     8     7     8    1
     9     8     9   ar
    10     8    10   ar
    11     7     1    1
    12     1     2    1
    13     2     3    1
    14     3     4    1
    15     4    19    1
    16    19    20    1
    17    20    21    1
    18    21    22    1
    19    22    23    1
    20    23    26    1
    21    26    27    1
    22    27    28   ar
    23    28    29   ar
    24    29    30   ar
    25    30    31    1
    26    30    32   ar
    27    32    33    1
    28    32    34   ar
    29    23    24    1
    30    24    25    1
    31     4     5    1
    32     5     6    1
    33    17    18   ar
    34    18    13   ar
    35     6     1    1
    36    25    20    1
    37    34    27   ar
@<TRIPOS>MOLECULE
*****
 34 37 0 0 0
SMALL
GASTEIGER

@<TRIPOS>ATOM
      1 N         140.1590  139.4498  164.2676 N.3     1  UNL1       -0.2691
      2 C         140.0834  140.7669  163.5539 C.3     1  UNL1        0.0724
      3 C         139.8647  140.8046  162.0704 C.3     1  UNL1        0.0188
      4 C         139.7215  139.5253  161.3006 C.3     1  UNL1        0.0188
      5 C         139.7970  138.2080  162.0143 C.3     1  UNL1        0.0188
      6 C         140.0158  138.1703  163.4978 C.3     1  UNL1        0.0724
      7 C         140.3778  139.4121  165.7510 C.3     1  UNL1        0.0987
      8 C         139.2051  139.4792  166.6840 C.2     1  UNL1        0.0652
      9 O         139.3864  139.9960  168.0805 O.co2   1  UNL1       -0.5478
     10 O         137.8513  139.0295  166.2206 O.co2   1  UNL1       -0.5478
     11 C         141.7692  139.3073  166.3015 C.3     1  UNL1        0.0480
     12 C         144.4173  143.6138  165.1008 C.3     1  UNL1        0.0310
     13 C         144.2330  142.1292  164.9913 C.ar    1  UNL1       -0.0222
     14 C         145.1884  141.3132  164.1720 C.ar    1  UNL1       -0.0043
     15 C         145.0041  139.8286  164.0625 C.ar    1  UNL1       -0.0006
     16 C         143.8644  139.1600  164.7724 C.ar    1  UNL1       -0.0042
     17 C         142.9090  139.9759  165.5917 C.ar    1  UNL1       -0.0208
     18 C         143.0933  141.4605  165.7011 C.ar    1  UNL1       -0.0085
     19 C         139.5027  139.5630  159.8171 C.3     1  UNL1        0.0721
     20 N         140.3654  138.7362  158.9105 N.3     1  UNL1       -0.2724
     21 C         139.7760  138.1058  157.6836 C.3     1  UNL1        0.0758
     22 C         140.6388  137.2790  156.7770 C.3     1  UNL1        0.0609
     23 C         142.0910  137.0826  157.0972 C.3     1  UNL1        0.1687
     24 C         142.6804  137.7129  158.3240 C.3     1  UNL1        0.0609
     25 C         141.8176  138.5398  159.2307 C.3     1  UNL1        0.0758
     26 O         142.9538  136.2558  156.1906 O.3     1  UNL1       -0.4790
     27 C         142.9095  134.7587  156.2728 C.ar    1  UNL1        0.1393
     28 C         143.9040  134.0246  157.1226 C.ar    1  UNL1        0.0378
     29 C         143.8598  132.5275  157.2049 C.ar    1  UNL1        0.0154
     30 C         142.8211  131.7645  156.4374 C.ar    1  UNL1        0.0684
     31 CL        142.7769  130.2674  156.5197 Cl      1  UNL1       -0.0814
     32 C         141.8267  132.4986  155.5876 C.ar    1  UNL1        0.0712
     33 CL        140.7880  131.7357  154.8201 Cl      1  UNL1       -0.0813
     34 C         141.8709  133.9957  155.5053 C.ar    1  UNL1        0.0491
@<TRIPOS>UNITY_ATOM_ATTR
9 1
charge -1
@<TRIPOS>BOND
     1    12    13    1
     2    13    14   ar
     3    14    15   ar
     4    15    16   ar
     5    16    17   ar
     6    17    11    1
     7     7    11    1
     8     7     8    1
     9     8     9   ar
    10     8    10   ar
    11     7     1    1
    12     1     2    1
    13     2     3    1
    14     3     4    1
    15     4    19    1
    16    19    20    1
    17    20    21    1
    18    21    22    1
    19    22    23    1
    20    23    26    1
    21    26    27    1
    22    27    28   ar
    23    28    29   ar
    24    29    30   ar
    25    30    31    1
    26    30    32   ar
    27    32    33    1
    28    32    34   ar
    29    23    24    1
    30    24    25    1
    31     4     5    1
    32     5     6    1
    33    17    18   ar
    34    18    13   ar
    35     6     1    1
    36    25    20    1
    37    34    27   ar
@<TRIPOS>MOLECULE
*****
 34 37 0 0 0
SMALL
GASTEIGER

@<TRIPOS>ATOM
      1 N         140.2905  139.8843  167.0217 N.3     1  UNL1       -0.2691
      2 C         139.0232  139.4619  166.3396 C.3     1  UNL1        0.0724
      3 C         139.0780  138.5291  165.1662 C.3     1  UNL1        0.0188
      4 C         140.4001  138.0187  164.6749 C.3     1  UNL1        0.0188
      5 C         141.6675  138.4411  165.3571 C.3     1  UNL1        0.0188
      6 C         141.6127  139.3739  166.5305 C.3     1  UNL1        0.0724
      7 C         140.2357  140.8171  168.1951 C.3     1  UNL1        0.0987
      8 C         139.8612  140.2957  169.5509 C.2     1  UNL1        0.0652
      9 O         140.7523  139.3109  170.2481 O.co2   1  UNL1       -0.5478
     10 O         138.5956  140.7591  170.2093 O.co2   1  UNL1       -0.5478
     11 C         140.5554  142.2712  168.0128 C.3     1  UNL1        0.0480
     12 C         144.0116  143.3400  164.2829 C.3     1  UNL1        0.0310
     13 C         142.5969  143.3391  164.7814 C.ar    1  UNL1       -0.0222
     14 C         141.4955  143.8716  163.9134 C.ar    1  UNL1       -0.0043
     15 C         140.0808  143.8707  164.4119 C.ar    1  UNL1       -0.0006
     16 C         139.7674  143.3372  165.7784 C.ar    1  UNL1       -0.0042
     17 C         140.8687  142.8047  166.6463 C.ar    1  UNL1       -0.0208
     18 C         142.2835  142.8057  166.1478 C.ar    1  UNL1       -0.0085
     19 C         140.4549  137.0859  163.5015 C.3     1  UNL1        0.0721
     20 N         140.5821  137.6356  162.1117 N.3     1  UNL1       -0.2724
     21 C         141.9381  137.8027  161.4924 C.3     1  UNL1        0.0758
     22 C         142.0653  138.3524  160.1026 C.3     1  UNL1        0.0609
     23 C         140.8366  138.7350  159.3320 C.3     1  UNL1        0.1687
     24 C         139.4807  138.5679  159.9512 C.3     1  UNL1        0.0609
     25 C         139.3534  138.0182  161.3411 C.3     1  UNL1        0.0758
     26 O         140.9638  139.2847  157.9422 O.3     1  UNL1       -0.4790
     27 C         140.0052  138.8505  156.8733 C.ar    1  UNL1        0.1393
     28 C         139.9705  137.4166  156.4344 C.ar    1  UNL1        0.0378
     29 C         139.0119  136.9824  155.3655 C.ar    1  UNL1        0.0154
     30 C         138.0880  137.9822  154.7354 C.ar    1  UNL1        0.0684
     31 CL        137.1294  137.5480  153.6665 Cl      1  UNL1       -0.0814
     32 C         138.1227  139.4161  155.1743 C.ar    1  UNL1        0.0712
     33 CL        137.1988  140.4159  154.5443 Cl      1  UNL1       -0.0813
     34 C         139.0813  139.8503  156.2433 C.ar    1  UNL1        0.0491
@<TRIPOS>UNITY_ATOM_ATTR
9 1
charge -1
@<TRIPOS>BOND
     1    12    13    1
     2    13    14   ar
     3    14    15   ar
     4    15    16   ar
     5    16    17   ar
     6    17    11    1
     7     7    11    1
     8     7     8    1
     9     8     9   ar
    10     8    10   ar
    11     7     1    1
    12     1     2    1
    13     2     3    1
    14     3     4    1
    15     4    19    1
    16    19    20    1
    17    20    21    1
    18    21    22    1
    19    22    23    1
    20    23    26    1
    21    26    27    1
    22    27    28   ar
    23    28    29   ar
    24    29    30   ar
    25    30    31    1
    26    30    32   ar
    27    32    33    1
    28    32    34   ar
    29    23    24    1
    30    24    25    1
    31     4     5    1
    32     5     6    1
    33    17    18   ar
    34    18    13   ar
    35     6     1    1
    36    25    20    1
    37    34    27   ar
@<TRIPOS>MOLECULE
*****
 34 37 0 0 0
SMALL
GASTEIGER

@<TRIPOS>ATOM
      1 N         141.9925  140.6394  159.1886 N.3     1  UNL1       -0.2691
      2 C         142.2446  139.4151  160.0176 C.3     1  UNL1        0.0724
      3 C         141.1213  138.7863  160.7876 C.3     1  UNL1        0.0188
      4 C         139.7459  139.3819  160.7285 C.3     1  UNL1        0.0188
      5 C         139.4938  140.6064  159.8995 C.3     1  UNL1        0.0188
      6 C         140.6171  141.2351  159.1295 C.3     1  UNL1        0.0724
      7 C         143.1158  141.2682  158.4186 C.3     1  UNL1        0.0987
      8 C         143.5190  140.7068  157.0872 C.2     1  UNL1        0.0652
      9 O         144.3210  139.4410  157.0188 O.co2   1  UNL1       -0.5478
     10 O         143.1201  141.4111  155.8244 O.co2   1  UNL1       -0.5478
     11 C         143.8359  142.4583  158.9798 C.3     1  UNL1        0.0480
     12 C         145.8090  141.6501  163.7184 C.3     1  UNL1        0.0310
     13 C         144.8029  142.3147  162.8262 C.ar    1  UNL1       -0.0222
     14 C         143.7772  143.2399  163.4110 C.ar    1  UNL1       -0.0043
     15 C         142.7711  143.9045  162.5188 C.ar    1  UNL1       -0.0006
     16 C         142.7906  143.6440  161.0418 C.ar    1  UNL1       -0.0042
     17 C         143.8163  142.7189  160.4570 C.ar    1  UNL1       -0.0208
     18 C         144.8224  142.0542  161.3492 C.ar    1  UNL1       -0.0085
     19 C         138.6226  138.7532  161.4985 C.3     1  UNL1        0.0721
     20 N         138.6034  138.8325  162.9963 N.3     1  UNL1       -0.2724
     21 C         138.1837  140.1028  163.6747 C.3     1  UNL1        0.0758
     22 C         138.1645  140.1821  165.1725 C.3     1  UNL1        0.0609
     23 C         138.5648  138.9912  165.9918 C.3     1  UNL1        0.1687
     24 C         138.9845  137.7209  165.3134 C.3     1  UNL1        0.0609
     25 C         139.0037  137.6415  163.8156 C.3     1  UNL1        0.0758
     26 O         138.5456  139.0705  167.4896 O.3     1  UNL1       -0.4790
     27 C         139.4631  140.0194  168.2023 C.ar    1  UNL1        0.1393
     28 C         139.1392  140.4720  169.5952 C.ar    1  UNL1        0.0378
     29 C         140.0566  141.4208  170.3079 C.ar    1  UNL1        0.0154
     30 C         141.2980  141.9171  169.6277 C.ar    1  UNL1        0.0684
     31 CL        142.2155  142.8660  170.3403 Cl      1  UNL1       -0.0814
     32 C         141.6220  141.4645  168.2347 C.ar    1  UNL1        0.0712
     33 CL        142.8633  141.9608  167.5545 Cl      1  UNL1       -0.0813
     34 C         140.7045  140.5156  167.5220 C.ar    1  UNL1        0.0491
@<TRIPOS>UNITY_ATOM_ATTR
9 1
charge -1
@<TRIPOS>BOND
     1    12    13    1
     2    13    14   ar
     3    14    15   ar
     4    15    16   ar
     5    16    17   ar
     6    17    11    1
     7     7    11    1
     8     7     8    1
     9     8     9   ar
    10     8    10   ar
    11     7     1    1
    12     1     2    1
    13     2     3    1
    14     3     4    1
    15     4    19    1
    16    19    20    1
    17    20    21    1
    18    21    22    1
    19    22    23    1
    20    23    26    1
    21    26    27    1
    22    27    28   ar
    23    28    29   ar
    24    29    30   ar
    25    30    31    1
    26    30    32   ar
    27    32    33    1
    28    32    34   ar
    29    23    24    1
    30    24    25    1
    31     4     5    1
    32     5     6    1
    33    17    18   ar
    34    18    13   ar
    35     6     1    1
    36    25    20    1
    37    34    27   ar
