@<TRIPOS>MOLECULE
*****
 31 33 0 0 0
SMALL
GASTEIGER

@<TRIPOS>ATOM
      1 C         141.1656  137.6403  162.2280 C.3     1  UNL1        0.1070
      2 N         141.6110  139.0712  162.1614 N.am    1  UNL1       -0.2994
      3 C         140.5936  140.1730  162.1359 C.2     1  UNL1        0.2470
      4 O         139.1307  139.8441  162.1769 O.2     1  UNL1       -0.2701
      5 H         142.5712  139.2870  162.1345 H       1  UNL1        0.1498
      6 C         141.0391  141.6037  162.0694 C.ar    1  UNL1        0.0661
      7 C         141.9365  142.2944  163.0530 C.ar    1  UNL1        0.0183
      8 C         142.1174  143.7127  162.5991 C.ar    1  UNL1        0.0363
      9 N         141.3318  143.8985  161.3348 N.ar    1  UNL1       -0.3319
     10 C         141.2304  145.1651  160.5379 C.3     1  UNL1        0.1298
     11 C         140.6653  142.5951  161.0074 C.ar    1  UNL1        0.0415
     12 C         139.7805  142.3296  159.8257 C.3     1  UNL1        0.0502
     13 C         142.9396  144.7610  163.2883 C.3     1  UNL1        0.0336
     14 C         141.7047  145.2917  163.9541 C.3     1  UNL1        0.0059
     15 C         144.1745  144.2302  162.6224 C.3     1  UNL1        0.0059
     16 C         143.7617  145.8093  163.9776 C.3     1  UNL1        0.0059
     17 C         140.8105  137.0260  163.5495 C.3     1  UNL1        0.0937
     18 N         140.7545  139.5617  167.2667 N.pl3   1  UNL1       -0.3049
     19 C         139.4652  139.1535  166.6178 C.3     1  UNL1        0.1081
     20 C         139.4839  138.3082  165.3787 C.3     1  UNL1        0.0939
     21 N         140.7918  137.8712  164.7886 N.3     1  UNL1       -0.2683
     22 C         142.0811  138.2795  165.4375 C.3     1  UNL1        0.0939
     23 C         142.0624  139.1247  166.6766 C.3     1  UNL1        0.1081
     24 C         140.3200  144.2181  169.5315 C.3     1  UNL1        0.0307
     25 C         140.5186  142.7351  169.6382 C.ar    1  UNL1       -0.0246
     26 C         140.6985  142.0974  170.9838 C.ar    1  UNL1       -0.0045
     27 C         140.8971  140.6144  171.0905 C.ar    1  UNL1        0.0009
     28 C         140.9158  139.7692  169.8515 C.ar    1  UNL1        0.0142
     29 C         140.7358  140.4069  168.5058 C.ar    1  UNL1        0.0436
     30 C         140.5372  141.8899  168.3992 C.ar    1  UNL1       -0.0125
     31 C         140.3573  142.5276  167.0534 C.3     1  UNL1        0.0320
@<TRIPOS>BOND
     1    24    25    1
     2    25    26   ar
     3    26    27   ar
     4    27    28   ar
     5    28    29   ar
     6    29    18    1
     7    18    19    1
     8    19    20    1
     9    20    21    1
    10    21    17    1
    11    17     1    1
    12     1     2    1
    13     2     3   am
    14     3     4    2
    15     3     6    1
    16     6     7   ar
    17     7     8   ar
    18     8    13    1
    19    13    14    1
    20    13    15    1
    21    13    16    1
    22     8     9   ar
    23     9    10    1
    24     9    11   ar
    25    11    12    1
    26    21    22    1
    27    22    23    1
    28    29    30   ar
    29    30    31    1
    30    30    25   ar
    31    23    18    1
    32    11     6   ar
    33     2     5    1
@<TRIPOS>MOLECULE
*****
 31 33 0 0 0
SMALL
GASTEIGER

@<TRIPOS>ATOM
      1 C         138.8206  138.3877  160.7639 C.3     1  UNL1        0.1070
      2 N         139.7596  139.5553  160.8353 N.am    1  UNL1       -0.2994
      3 C         141.1609  139.3613  161.3340 C.2     1  UNL1        0.2470
      4 O         141.6232  137.9998  161.7613 O.2     1  UNL1       -0.2701
      5 H         139.4562  140.4489  160.5548 H       1  UNL1        0.1498
      6 C         142.0998  140.5289  161.4054 C.ar    1  UNL1        0.0661
      7 C         142.0804  141.6139  162.4409 C.ar    1  UNL1        0.0183
      8 C         143.1917  142.5721  162.1293 C.ar    1  UNL1        0.0363
      9 N         143.8979  142.0792  160.9011 N.ar    1  UNL1       -0.3319
     10 C         145.0726  142.7341  160.2370 C.3     1  UNL1        0.1298
     11 C         143.2231  140.8165  160.4537 C.ar    1  UNL1        0.0415
     12 C         143.6046  139.9869  159.2637 C.3     1  UNL1        0.0502
     13 C         143.5362  143.8064  162.9089 C.3     1  UNL1        0.0336
     14 C         142.5288  144.5872  162.1180 C.3     1  UNL1        0.0059
     15 C         144.5437  143.0255  163.6999 C.3     1  UNL1        0.0059
     16 C         143.8808  145.0407  163.6885 C.3     1  UNL1        0.0059
     17 C         138.0885  137.9377  161.9933 C.3     1  UNL1        0.0937
     18 N         139.1871  139.6347  166.0136 N.pl3   1  UNL1       -0.3049
     19 C         138.3204  140.4240  165.0778 C.3     1  UNL1        0.1081
     20 C         137.9541  139.8584  163.7377 C.3     1  UNL1        0.0939
     21 N         138.4547  138.5034  163.3334 N.3     1  UNL1       -0.2683
     22 C         139.3214  137.7141  164.2692 C.3     1  UNL1        0.0939
     23 C         139.6876  138.2797  165.6093 C.3     1  UNL1        0.1081
     24 C         142.2576  142.6287  168.9476 C.3     1  UNL1        0.0307
     25 C         141.0886  141.6974  168.8207 C.ar    1  UNL1       -0.0246
     26 C         140.2859  141.3317  170.0339 C.ar    1  UNL1       -0.0045
     27 C         139.1169  140.4004  169.9070 C.ar    1  UNL1        0.0009
     28 C         138.7507  139.8347  168.5670 C.ar    1  UNL1        0.0142
     29 C         139.5534  140.2004  167.3538 C.ar    1  UNL1        0.0436
     30 C         140.7223  141.1317  167.4807 C.ar    1  UNL1       -0.0125
     31 C         141.5251  141.4974  166.2674 C.3     1  UNL1        0.0320
@<TRIPOS>BOND
     1    24    25    1
     2    25    26   ar
     3    26    27   ar
     4    27    28   ar
     5    28    29   ar
     6    29    18    1
     7    18    19    1
     8    19    20    1
     9    20    21    1
    10    21    17    1
    11    17     1    1
    12     1     2    1
    13     2     3   am
    14     3     4    2
    15     3     6    1
    16     6     7   ar
    17     7     8   ar
    18     8    13    1
    19    13    14    1
    20    13    15    1
    21    13    16    1
    22     8     9   ar
    23     9    10    1
    24     9    11   ar
    25    11    12    1
    26    21    22    1
    27    22    23    1
    28    29    30   ar
    29    30    31    1
    30    30    25   ar
    31    23    18    1
    32    11     6   ar
    33     2     5    1
@<TRIPOS>MOLECULE
*****
 31 33 0 0 0
SMALL
GASTEIGER

@<TRIPOS>ATOM
      1 C         144.4472  140.5544  157.2529 C.3     1  UNL1        0.1070
      2 N         144.1038  140.7931  158.6935 N.am    1  UNL1       -0.2994
      3 C         143.7008  142.1634  159.1513 C.2     1  UNL1        0.2470
      4 O         143.6413  143.2952  158.1687 O.2     1  UNL1       -0.2701
      5 H         144.1429  140.0503  159.3384 H       1  UNL1        0.1498
      6 C         143.3574  142.4021  160.5918 C.ar    1  UNL1        0.0661
      7 C         144.3019  142.8752  161.6567 C.ar    1  UNL1        0.0183
      8 C         143.5374  142.9750  162.9435 C.ar    1  UNL1        0.0363
      9 N         142.1203  142.5635  162.6738 N.ar    1  UNL1       -0.3319
     10 C         141.0096  142.5147  163.6806 C.3     1  UNL1        0.1298
     11 C         142.0091  142.2094  161.2204 C.ar    1  UNL1        0.0415
     12 C         140.7676  141.7443  160.5188 C.3     1  UNL1        0.0502
     13 C         144.0924  143.4099  164.2674 C.3     1  UNL1        0.0336
     14 C         143.7076  144.8274  163.9631 C.3     1  UNL1        0.0059
     15 C         144.4773  141.9924  164.5717 C.3     1  UNL1        0.0059
     16 C         144.6475  143.8449  165.5913 C.3     1  UNL1        0.0059
     17 C         143.5115  139.7740  156.3782 C.3     1  UNL1        0.0937
     18 N         143.4477  135.2798  156.5979 N.pl3   1  UNL1       -0.3049
     19 C         144.1582  135.9654  155.4688 C.3     1  UNL1        0.1081
     20 C         144.1795  137.4636  155.3955 C.3     1  UNL1        0.0939
     21 N         143.4902  138.2760  156.4514 N.3     1  UNL1       -0.2683
     22 C         142.7796  137.5902  157.5806 C.3     1  UNL1        0.0939
     23 C         142.7584  136.0922  157.6538 C.3     1  UNL1        0.1081
     24 C         141.3767  130.7335  155.1688 C.3     1  UNL1        0.0307
     25 C         142.3909  131.5086  155.9567 C.ar    1  UNL1       -0.0246
     26 C         143.3837  130.7857  156.8177 C.ar    1  UNL1       -0.0045
     27 C         144.3979  131.5607  157.6056 C.ar    1  UNL1        0.0009
     28 C         144.4192  133.0588  157.5323 C.ar    1  UNL1        0.0142
     29 C         143.4264  133.7817  156.6712 C.ar    1  UNL1        0.0436
     30 C         142.4122  133.0066  155.8834 C.ar    1  UNL1       -0.0125
     31 C         141.4193  133.7297  155.0223 C.3     1  UNL1        0.0320
@<TRIPOS>BOND
     1    24    25    1
     2    25    26   ar
     3    26    27   ar
     4    27    28   ar
     5    28    29   ar
     6    29    18    1
     7    18    19    1
     8    19    20    1
     9    20    21    1
    10    21    17    1
    11    17     1    1
    12     1     2    1
    13     2     3   am
    14     3     4    2
    15     3     6    1
    16     6     7   ar
    17     7     8   ar
    18     8    13    1
    19    13    14    1
    20    13    15    1
    21    13    16    1
    22     8     9   ar
    23     9    10    1
    24     9    11   ar
    25    11    12    1
    26    21    22    1
    27    22    23    1
    28    29    30   ar
    29    30    31    1
    30    30    25   ar
    31    23    18    1
    32    11     6   ar
    33     2     5    1
@<TRIPOS>MOLECULE
*****
 31 33 0 0 0
SMALL
GASTEIGER

@<TRIPOS>ATOM
      1 C         142.8932  137.0423  157.4946 C.3     1  UNL1        0.1070
      2 N         142.5889  135.9083  156.5611 N.am    1  UNL1       -0.2994
      3 C         142.9201  134.5003  156.9584 C.2     1  UNL1        0.2470
      4 O         143.5557  134.2263  158.2892 O.2     1  UNL1       -0.2701
      5 H         142.1717  136.0881  155.6877 H       1  UNL1        0.1498
      6 C         142.6158  133.3664  156.0249 C.ar    1  UNL1        0.0661
      7 C         141.3455  133.1795  155.2493 C.ar    1  UNL1        0.0183
      8 C         141.4729  131.9177  154.4481 C.ar    1  UNL1        0.0363
      9 N         142.8220  131.3248  154.7286 N.ar    1  UNL1       -0.3319
     10 C         143.3687  130.0590  154.1382 C.3     1  UNL1        0.1298
     11 C         143.5283  132.2201  155.7030 C.ar    1  UNL1        0.0415
     12 C         144.9053  132.0067  156.2583 C.3     1  UNL1        0.0502
     13 C         140.4338  131.3488  153.5280 C.3     1  UNL1        0.0336
     14 C         139.8948  130.5150  154.6524 C.3     1  UNL1        0.0059
     15 C         140.9728  132.1827  152.4037 C.3     1  UNL1        0.0059
     16 C         139.3947  130.7799  152.6080 C.3     1  UNL1        0.0059
     17 C         141.8472  138.0781  157.7825 C.3     1  UNL1        0.0937
     18 N         140.3429  138.6492  161.9850 N.pl3   1  UNL1       -0.3049
     19 C         141.7517  138.1919  161.7484 C.3     1  UNL1        0.1081
     20 C         142.2532  138.0015  160.3475 C.3     1  UNL1        0.0939
     21 N         141.3458  138.2685  159.1833 N.3     1  UNL1       -0.2683
     22 C         139.9369  138.7258  159.4200 C.3     1  UNL1        0.0939
     23 C         139.4355  138.9161  160.8208 C.3     1  UNL1        0.1081
     24 C         139.8021  141.6330  166.2045 C.3     1  UNL1        0.0307
     25 C         139.5710  140.3315  165.4956 C.ar    1  UNL1       -0.0246
     26 C         138.8385  139.2203  166.1875 C.ar    1  UNL1       -0.0045
     27 C         138.6075  137.9188  165.4785 C.ar    1  UNL1        0.0009
     28 C         139.1089  137.7284  164.0777 C.ar    1  UNL1        0.0142
     29 C         139.8414  138.8395  163.3859 C.ar    1  UNL1        0.0436
     30 C         140.0724  140.1411  164.0948 C.ar    1  UNL1       -0.0125
     31 C         140.8050  141.2523  163.4029 C.3     1  UNL1        0.0320
@<TRIPOS>BOND
     1    24    25    1
     2    25    26   ar
     3    26    27   ar
     4    27    28   ar
     5    28    29   ar
     6    29    18    1
     7    18    19    1
     8    19    20    1
     9    20    21    1
    10    21    17    1
    11    17     1    1
    12     1     2    1
    13     2     3   am
    14     3     4    2
    15     3     6    1
    16     6     7   ar
    17     7     8   ar
    18     8    13    1
    19    13    14    1
    20    13    15    1
    21    13    16    1
    22     8     9   ar
    23     9    10    1
    24     9    11   ar
    25    11    12    1
    26    21    22    1
    27    22    23    1
    28    29    30   ar
    29    30    31    1
    30    30    25   ar
    31    23    18    1
    32    11     6   ar
    33     2     5    1
@<TRIPOS>MOLECULE
*****
 31 33 0 0 0
SMALL
GASTEIGER

@<TRIPOS>ATOM
      1 C         138.4254  142.5154  158.8230 C.3     1  UNL1        0.1070
      2 N         138.8733  141.6487  159.9625 N.am    1  UNL1       -0.2994
      3 C         138.5418  142.0344  161.3736 C.2     1  UNL1        0.2470
      4 O         137.7623  143.2869  161.6453 O.2     1  UNL1       -0.2701
      5 H         139.3848  140.8266  159.7842 H       1  UNL1        0.1498
      6 C         138.9897  141.1677  162.5130 C.ar    1  UNL1        0.0661
      7 C         138.1223  140.2347  163.3050 C.ar    1  UNL1        0.0183
      8 C         138.9802  139.5722  164.3419 C.ar    1  UNL1        0.0363
      9 N         140.3778  140.0958  164.1907 N.ar    1  UNL1       -0.3319
     10 C         141.5615  139.7024  165.0236 C.3     1  UNL1        0.1298
     11 C         140.3836  141.0818  163.0604 C.ar    1  UNL1        0.0415
     12 C         141.5742  141.8476  162.5646 C.3     1  UNL1        0.0502
     13 C         138.5211  138.5633  165.3525 C.3     1  UNL1        0.0336
     14 C         138.0771  139.6731  166.2587 C.3     1  UNL1        0.0059
     15 C         138.9652  137.4535  164.4462 C.3     1  UNL1        0.0059
     16 C         138.0621  137.5544  166.3631 C.3     1  UNL1        0.0059
     17 C         139.3035  142.6839  157.6187 C.3     1  UNL1        0.0937
     18 N         139.4852  146.6519  155.5041 N.pl3   1  UNL1       -0.3049
     19 C         138.4036  145.6698  155.1642 C.3     1  UNL1        0.1081
     20 C         138.3430  144.3471  155.8691 C.3     1  UNL1        0.0939
     21 N         139.3640  144.0065  156.9138 N.3     1  UNL1       -0.2683
     22 C         140.4457  144.9887  157.2537 C.3     1  UNL1        0.0939
     23 C         140.5062  146.3113  156.5489 C.3     1  UNL1        0.1081
     24 C         138.5073  151.7545  155.4190 C.3     1  UNL1        0.0307
     25 C         139.0568  150.5259  154.7567 C.ar    1  UNL1       -0.0246
     26 C         139.6670  150.6200  153.3897 C.ar    1  UNL1       -0.0045
     27 C         140.2165  149.3915  152.7275 C.ar    1  UNL1        0.0009
     28 C         140.1559  148.0688  153.4322 C.ar    1  UNL1        0.0142
     29 C         139.5458  147.9747  154.7993 C.ar    1  UNL1        0.0436
     30 C         138.9963  149.2032  155.4615 C.ar    1  UNL1       -0.0125
     31 C         138.3861  149.1091  156.8287 C.3     1  UNL1        0.0320
@<TRIPOS>BOND
     1    24    25    1
     2    25    26   ar
     3    26    27   ar
     4    27    28   ar
     5    28    29   ar
     6    29    18    1
     7    18    19    1
     8    19    20    1
     9    20    21    1
    10    21    17    1
    11    17     1    1
    12     1     2    1
    13     2     3   am
    14     3     4    2
    15     3     6    1
    16     6     7   ar
    17     7     8   ar
    18     8    13    1
    19    13    14    1
    20    13    15    1
    21    13    16    1
    22     8     9   ar
    23     9    10    1
    24     9    11   ar
    25    11    12    1
    26    21    22    1
    27    22    23    1
    28    29    30   ar
    29    30    31    1
    30    30    25   ar
    31    23    18    1
    32    11     6   ar
    33     2     5    1
@<TRIPOS>MOLECULE
*****
 31 33 0 0 0
SMALL
GASTEIGER

@<TRIPOS>ATOM
      1 C         141.1289  145.3599  163.2110 C.3     1  UNL1        0.1070
      2 N         141.0420  144.0932  164.0097 N.am    1  UNL1       -0.2994
      3 C         139.9479  143.9175  165.0206 C.2     1  UNL1        0.2470
      4 O         138.9406  145.0085  165.2329 O.2     1  UNL1       -0.2701
      5 H         141.7031  143.3771  163.8704 H       1  UNL1        0.1498
      6 C         139.8611  142.6508  165.8192 C.ar    1  UNL1        0.0661
      7 C         140.5813  142.3675  167.1042 C.ar    1  UNL1        0.0183
      8 C         140.2041  140.9865  167.5523 C.ar    1  UNL1        0.0363
      9 N         139.2508  140.4163  166.5442 N.ar    1  UNL1       -0.3319
     10 C         138.6202  139.0564  166.5978 C.3     1  UNL1        0.1298
     11 C         139.0388  141.4448  165.4732 C.ar    1  UNL1        0.0415
     12 C         138.1590  141.2941  164.2677 C.3     1  UNL1        0.0502
     13 C         140.6942  140.2968  168.7909 C.3     1  UNL1        0.0336
     14 C         141.9014  139.8128  168.0437 C.3     1  UNL1        0.0059
     15 C         139.4868  140.7808  169.5380 C.3     1  UNL1        0.0059
     16 C         141.1842  139.6071  170.0295 C.3     1  UNL1        0.0059
     17 C         140.0513  145.7000  162.2245 C.3     1  UNL1        0.0937
     18 N         139.0254  142.8129  158.9288 N.pl3   1  UNL1       -0.3049
     19 C         139.8554  144.0264  158.6314 C.3     1  UNL1        0.1081
     20 C         140.1974  144.9888  159.7300 C.3     1  UNL1        0.0939
     21 N         139.7093  144.7377  161.1260 N.3     1  UNL1       -0.2683
     22 C         138.8793  143.5241  161.4233 C.3     1  UNL1        0.0939
     23 C         138.5374  142.5617  160.3247 C.3     1  UNL1        0.1081
     24 C         140.1112  138.5238  156.2039 C.3     1  UNL1        0.0307
     25 C         139.2263  139.7060  156.4677 C.ar    1  UNL1       -0.0246
     26 C         137.9996  139.9257  155.6331 C.ar    1  UNL1       -0.0045
     27 C         137.1147  141.1078  155.8970 C.ar    1  UNL1        0.0009
     28 C         137.4567  142.0702  156.9955 C.ar    1  UNL1        0.0142
     29 C         138.6834  141.8505  157.8302 C.ar    1  UNL1        0.0436
     30 C         139.5683  140.6684  157.5663 C.ar    1  UNL1       -0.0125
     31 C         140.7951  140.4486  158.4010 C.3     1  UNL1        0.0320
@<TRIPOS>BOND
     1    24    25    1
     2    25    26   ar
     3    26    27   ar
     4    27    28   ar
     5    28    29   ar
     6    29    18    1
     7    18    19    1
     8    19    20    1
     9    20    21    1
    10    21    17    1
    11    17     1    1
    12     1     2    1
    13     2     3   am
    14     3     4    2
    15     3     6    1
    16     6     7   ar
    17     7     8   ar
    18     8    13    1
    19    13    14    1
    20    13    15    1
    21    13    16    1
    22     8     9   ar
    23     9    10    1
    24     9    11   ar
    25    11    12    1
    26    21    22    1
    27    22    23    1
    28    29    30   ar
    29    30    31    1
    30    30    25   ar
    31    23    18    1
    32    11     6   ar
    33     2     5    1
@<TRIPOS>MOLECULE
*****
 31 33 0 0 0
SMALL
GASTEIGER

@<TRIPOS>ATOM
      1 C         139.8988  146.0092  161.9102 C.3     1  UNL1        0.1070
      2 N         139.6859  145.9092  160.4287 N.am    1  UNL1       -0.2994
      3 C         140.7273  145.2640  159.5632 C.2     1  UNL1        0.2470
      4 O         141.9816  144.7187  160.1791 O.2     1  UNL1       -0.2701
      5 H         138.8626  146.2671  160.0244 H       1  UNL1        0.1498
      6 C         140.5143  145.1640  158.0818 C.ar    1  UNL1        0.0661
      7 C         141.0486  146.1108  157.0483 C.ar    1  UNL1        0.0183
      8 C         140.5942  145.6316  155.7015 C.ar    1  UNL1        0.0363
      9 N         139.7790  144.3885  155.9026 N.ar    1  UNL1       -0.3319
     10 C         139.1276  143.5770  154.8224 C.3     1  UNL1        0.1298
     11 C         139.7296  144.0995  157.3737 C.ar    1  UNL1        0.0415
     12 C         139.0202  142.9483  158.0227 C.3     1  UNL1        0.0502
     13 C         140.9011  146.2813  154.3848 C.3     1  UNL1        0.0336
     14 C         139.7270  147.1976  154.5633 C.3     1  UNL1        0.0059
     15 C         142.0752  145.3649  154.2063 C.3     1  UNL1        0.0059
     16 C         141.2079  146.9310  153.0681 C.3     1  UNL1        0.0059
     17 C         139.0255  145.2293  162.8477 C.3     1  UNL1        0.0937
     18 N         140.8610  142.2577  165.6850 N.pl3   1  UNL1       -0.3049
     19 C         141.7065  143.3402  165.0824 C.3     1  UNL1        0.1081
     20 C         141.0947  144.3308  164.1366 C.3     1  UNL1        0.0939
     21 N         139.6373  144.2388  163.7935 N.3     1  UNL1       -0.2683
     22 C         138.7919  143.1562  164.3962 C.3     1  UNL1        0.0939
     23 C         139.4037  142.1656  165.3419 C.3     1  UNL1        0.1081
     24 C         143.7547  138.0221  166.5140 C.3     1  UNL1        0.0307
     25 C         142.9197  139.1493  167.0452 C.ar    1  UNL1       -0.0246
     26 C         142.6965  139.2859  168.5222 C.ar    1  UNL1       -0.0045
     27 C         141.8615  140.4131  169.0535 C.ar    1  UNL1        0.0009
     28 C         141.2497  141.4037  168.1078 C.ar    1  UNL1        0.0142
     29 C         141.4729  141.2671  166.6308 C.ar    1  UNL1        0.0436
     30 C         142.3079  140.1399  166.0995 C.ar    1  UNL1       -0.0125
     31 C         142.5310  140.0033  164.6225 C.3     1  UNL1        0.0320
@<TRIPOS>BOND
     1    24    25    1
     2    25    26   ar
     3    26    27   ar
     4    27    28   ar
     5    28    29   ar
     6    29    18    1
     7    18    19    1
     8    19    20    1
     9    20    21    1
    10    21    17    1
    11    17     1    1
    12     1     2    1
    13     2     3   am
    14     3     4    2
    15     3     6    1
    16     6     7   ar
    17     7     8   ar
    18     8    13    1
    19    13    14    1
    20    13    15    1
    21    13    16    1
    22     8     9   ar
    23     9    10    1
    24     9    11   ar
    25    11    12    1
    26    21    22    1
    27    22    23    1
    28    29    30   ar
    29    30    31    1
    30    30    25   ar
    31    23    18    1
    32    11     6   ar
    33     2     5    1
@<TRIPOS>MOLECULE
*****
 31 33 0 0 0
SMALL
GASTEIGER

@<TRIPOS>ATOM
      1 C         139.9733  145.6303  160.7127 C.3     1  UNL1        0.1070
      2 N         140.4197  144.2557  160.3113 N.am    1  UNL1       -0.2994
      3 C         139.4873  143.0904  160.4621 C.2     1  UNL1        0.2470
      4 O         138.1085  143.2998  161.0143 O.2     1  UNL1       -0.2701
      5 H         141.3247  144.1182  159.9489 H       1  UNL1        0.1498
      6 C         139.9338  141.7159  160.0607 C.ar    1  UNL1        0.0661
      7 C         141.0904  140.9592  160.6435 C.ar    1  UNL1        0.0183
      8 C         141.1734  139.6322  159.9490 C.ar    1  UNL1        0.0363
      9 N         140.0681  139.5688  158.9369 N.ar    1  UNL1       -0.3319
     10 C         139.7796  138.4195  158.0173 C.3     1  UNL1        0.1298
     11 C         139.3019  140.8565  159.0060 C.ar    1  UNL1        0.0415
     12 C         138.1128  141.2210  158.1675 C.3     1  UNL1        0.0502
     13 C         142.1843  138.5574  160.2191 C.3     1  UNL1        0.0336
     14 C         141.3088  138.0071  161.3057 C.3     1  UNL1        0.0059
     15 C         143.0598  139.1078  159.1324 C.3     1  UNL1        0.0059
     16 C         143.1951  137.4826  160.4892 C.3     1  UNL1        0.0059
     17 C         140.0239  146.0444  162.1535 C.3     1  UNL1        0.0937
     18 N         141.3434  143.1045  165.2945 N.pl3   1  UNL1       -0.3049
     19 C         142.3640  143.8091  164.4508 C.3     1  UNL1        0.1081
     20 C         141.9241  144.7891  163.4037 C.3     1  UNL1        0.0939
     21 N         140.4637  145.0645  163.2005 N.3     1  UNL1       -0.2683
     22 C         139.4431  144.3598  164.0443 C.3     1  UNL1        0.0939
     23 C         139.8829  143.3799  165.0913 C.3     1  UNL1        0.1081
     24 C         143.3272  138.4761  166.5759 C.3     1  UNL1        0.0307
     25 C         142.7751  139.8103  166.9822 C.ar    1  UNL1       -0.0246
     26 C         142.6628  140.1645  168.4354 C.ar    1  UNL1       -0.0045
     27 C         142.1107  141.4987  168.8417 C.ar    1  UNL1        0.0009
     28 C         141.6709  142.4787  167.7947 C.ar    1  UNL1        0.0142
     29 C         141.7832  142.1245  166.3415 C.ar    1  UNL1        0.0436
     30 C         142.3353  140.7903  165.9353 C.ar    1  UNL1       -0.0125
     31 C         142.4476  140.4361  164.4820 C.3     1  UNL1        0.0320
@<TRIPOS>BOND
     1    24    25    1
     2    25    26   ar
     3    26    27   ar
     4    27    28   ar
     5    28    29   ar
     6    29    18    1
     7    18    19    1
     8    19    20    1
     9    20    21    1
    10    21    17    1
    11    17     1    1
    12     1     2    1
    13     2     3   am
    14     3     4    2
    15     3     6    1
    16     6     7   ar
    17     7     8   ar
    18     8    13    1
    19    13    14    1
    20    13    15    1
    21    13    16    1
    22     8     9   ar
    23     9    10    1
    24     9    11   ar
    25    11    12    1
    26    21    22    1
    27    22    23    1
    28    29    30   ar
    29    30    31    1
    30    30    25   ar
    31    23    18    1
    32    11     6   ar
    33     2     5    1
@<TRIPOS>MOLECULE
*****
 31 33 0 0 0
SMALL
GASTEIGER

@<TRIPOS>ATOM
      1 C         144.4469  141.2186  157.8022 C.3     1  UNL1        0.1070
      2 N         143.6873  141.5437  159.0542 N.am    1  UNL1       -0.2994
      3 C         143.1178  142.9174  159.2505 C.2     1  UNL1        0.2470
      4 O         143.3079  143.9661  158.1949 O.2     1  UNL1       -0.2701
      5 H         143.5625  140.8555  159.7470 H       1  UNL1        0.1498
      6 C         142.3582  143.2425  160.5024 C.ar    1  UNL1        0.0661
      7 C         140.8729  143.4209  160.6113 C.ar    1  UNL1        0.0183
      8 C         140.5472  143.7349  162.0415 C.ar    1  UNL1        0.0363
      9 N         141.8315  143.7505  162.8166 N.ar    1  UNL1       -0.3319
     10 C         141.9718  144.0227  164.2849 C.3     1  UNL1        0.1298
     11 C         142.9507  143.4462  161.8654 C.ar    1  UNL1        0.0415
     12 C         144.4067  143.3606  162.2156 C.3     1  UNL1        0.0502
     13 C         139.1779  143.9887  162.5988 C.3     1  UNL1        0.0336
     14 C         139.3459  145.4571  162.3428 C.3     1  UNL1        0.0059
     15 C         139.0100  142.5203  162.8548 C.3     1  UNL1        0.0059
     16 C         137.8087  144.2426  163.1561 C.3     1  UNL1        0.0059
     17 C         143.7495  140.5525  156.6534 C.3     1  UNL1        0.0937
     18 N         143.3273  136.0732  156.5692 N.pl3   1  UNL1       -0.3049
     19 C         144.1640  136.7672  155.5357 C.3     1  UNL1        0.1081
     20 C         144.3048  138.2603  155.5637 C.3     1  UNL1        0.0939
     21 N         143.6087  139.0594  156.6253 N.3     1  UNL1       -0.2683
     22 C         142.7719  138.3654  157.6588 C.3     1  UNL1        0.0939
     23 C         142.6312  136.8723  157.6308 C.3     1  UNL1        0.1081
     24 C         140.9027  131.8134  154.8441 C.3     1  UNL1        0.0307
     25 C         141.9742  132.4502  155.6786 C.ar    1  UNL1       -0.0246
     26 C         142.9050  131.5938  156.4850 C.ar    1  UNL1       -0.0045
     27 C         143.9765  132.2306  157.3195 C.ar    1  UNL1        0.0009
     28 C         144.1173  133.7237  157.3476 C.ar    1  UNL1        0.0142
     29 C         143.1865  134.5800  156.5412 C.ar    1  UNL1        0.0436
     30 C         142.1150  133.9432  155.7067 C.ar    1  UNL1       -0.0125
     31 C         141.1842  134.7997  154.9002 C.3     1  UNL1        0.0320
@<TRIPOS>BOND
     1    24    25    1
     2    25    26   ar
     3    26    27   ar
     4    27    28   ar
     5    28    29   ar
     6    29    18    1
     7    18    19    1
     8    19    20    1
     9    20    21    1
    10    21    17    1
    11    17     1    1
    12     1     2    1
    13     2     3   am
    14     3     4    2
    15     3     6    1
    16     6     7   ar
    17     7     8   ar
    18     8    13    1
    19    13    14    1
    20    13    15    1
    21    13    16    1
    22     8     9   ar
    23     9    10    1
    24     9    11   ar
    25    11    12    1
    26    21    22    1
    27    22    23    1
    28    29    30   ar
    29    30    31    1
    30    30    25   ar
    31    23    18    1
    32    11     6   ar
    33     2     5    1
