@<TRIPOS>MOLECULE
*****
 39 42 0 0 0
SMALL
GASTEIGER

@<TRIPOS>ATOM
      1 C         144.3140  142.5623  160.5151 C.3     1  UNL1        0.1204
      2 N         143.0420  142.7842  161.2784 N.am    1  UNL1       -0.2985
      3 C         142.9469  143.9084  162.2668 C.2     1  UNL1        0.2469
      4 O         144.1239  144.8107  162.4920 O.2     1  UNL1       -0.2701
      5 H         142.2695  142.1920  161.1306 H       1  UNL1        0.1498
      6 C         141.6748  144.1304  163.0301 C.2     1  UNL1        0.0665
      7 C         140.5864  144.9794  162.4432 C.2     1  UNL1        0.0931
      8 N         139.3144  145.2013  163.2066 N.am    1  UNL1       -0.1740
      9 C         139.1308  144.5743  164.5567 C.2     1  UNL1        0.2688
     10 O         137.8587  144.7963  165.3201 O.2     1  UNL1       -0.2680
     11 C         140.2192  143.7253  165.1437 C.2     1  UNL1        0.0532
     12 C         140.0356  143.0982  166.4939 C.2     1  UNL1        0.0223
     13 C         141.1240  142.2492  167.0808 C.2     1  UNL1        0.1019
     14 C         142.3961  142.0273  166.3175 C.2     1  UNL1       -0.0031
     15 C         142.5797  142.6543  164.9673 C.3     1  UNL1        0.0540
     16 C         141.4913  143.5033  164.3804 C.2     1  UNL1       -0.0076
     17 S         140.9405  141.6222  168.4311 S.O2    1  UNL1        0.0102
     18 C         140.7569  140.9952  169.7813 C.3     1  UNL1        0.1816
     19 O         141.4704  140.3233  167.9000 O.2     1  UNL1       -0.1686
     20 O         140.4105  142.9210  168.9621 O.2     1  UNL1       -0.1686
     21 C         144.2623  142.2020  159.0598 C.3     1  UNL1        0.1459
     22 O         144.8532  143.1264  158.0369 O.3     1  UNL1       -0.3813
     23 H         145.2250  143.9046  158.4808 H       1  UNL1        0.2105
     24 C         143.6197  140.9174  158.6276 C.3     1  UNL1        0.1034
     25 C         139.9219  139.4357  160.7205 C.3     1  UNL1        0.1687
     26 C         141.2586  138.8387  161.0471 C.3     1  UNL1        0.0609
     27 C         142.4913  139.3327  160.3494 C.3     1  UNL1        0.0759
     28 N         142.3871  140.4235  159.3252 N.3     1  UNL1       -0.2704
     29 C         141.0503  141.0205  158.9986 C.3     1  UNL1        0.0759
     30 C         139.8177  140.5266  159.6962 C.3     1  UNL1        0.0609
     31 O         138.6892  138.9418  161.4181 O.3     1  UNL1       -0.4794
     32 C         137.9265  141.4900  162.8056 C.3     1  UNL1        0.0342
     33 C         138.2253  140.2589  163.6090 C.ar    1  UNL1        0.0129
     34 C         138.1426  140.3020  165.1061 C.ar    1  UNL1        0.0101
     35 C         138.4413  139.0710  165.9094 C.ar    1  UNL1        0.0576
     36 CL        138.3587  139.1141  167.4065 Cl      1  UNL1       -0.0823
     37 C         138.8227  137.7970  165.2157 C.ar    1  UNL1        0.0145
     38 C         138.9053  137.7539  163.7186 C.ar    1  UNL1        0.0374
     39 C         138.6066  138.9849  162.9152 C.ar    1  UNL1        0.1344
@<TRIPOS>BOND
     1    32    33    1
     2    33    34   ar
     3    34    35   ar
     4    35    36    1
     5    35    37   ar
     6    37    38   ar
     7    38    39   ar
     8    39    31    1
     9    31    25    1
    10    25    26    1
    11    26    27    1
    12    27    28    1
    13    28    24    1
    14    24    21    1
    15    21    22    1
    16    21     1    1
    17     1     2    1
    18     2     3   am
    19     3     4    2
    20     3     6    1
    21     6     7    1
    22     7     8    2
    23     8     9    1
    24     9    10    2
    25     9    11    1
    26    11    12    2
    27    12    13    1
    28    13    17    1
    29    17    18    1
    30    17    19    2
    31    17    20    2
    32    13    14    2
    33    14    15    1
    34    15    16    1
    35    28    29    1
    36    29    30    1
    37    39    33   ar
    38    30    25    1
    39    16     6    2
    40    16    11    1
    41    22    23    1
    42     2     5    1
@<TRIPOS>MOLECULE
*****
 39 42 0 0 0
SMALL
GASTEIGER

@<TRIPOS>ATOM
      1 C         140.3253  145.5967  162.6282 C.3     1  UNL1        0.1204
      2 N         140.2218  144.2106  163.1923 N.am    1  UNL1       -0.2985
      3 C         138.8803  143.6478  163.5576 C.2     1  UNL1        0.2469
      4 O         137.6421  144.4710  163.3588 O.2     1  UNL1       -0.2701
      5 H         141.0344  143.6703  163.3227 H       1  UNL1        0.1498
      6 C         138.7768  142.2617  164.1216 C.2     1  UNL1        0.0665
      7 C         138.1156  141.1756  163.3260 C.2     1  UNL1        0.0931
      8 N         138.0121  139.7896  163.8901 N.am    1  UNL1       -0.1740
      9 C         138.5699  139.4896  165.2498 C.2     1  UNL1        0.2688
     10 O         138.4665  138.1036  165.8138 O.2     1  UNL1       -0.2680
     11 C         139.2312  140.5757  166.0455 C.2     1  UNL1        0.0532
     12 C         139.7890  140.2758  167.4052 C.2     1  UNL1        0.0223
     13 C         140.4503  141.3619  168.2008 C.2     1  UNL1        0.1019
     14 C         140.5538  142.7479  167.6367 C.2     1  UNL1       -0.0031
     15 C         139.9960  143.0479  166.2770 C.3     1  UNL1        0.0540
     16 C         139.3347  141.9618  165.4814 C.2     1  UNL1       -0.0076
     17 S         141.0082  141.0619  169.5606 S.O2    1  UNL1        0.0102
     18 C         141.5660  140.7620  170.9203 C.3     1  UNL1        0.1816
     19 O         141.5186  142.4687  169.6615 O.2     1  UNL1       -0.1686
     20 O         140.4977  139.6551  169.4596 O.2     1  UNL1       -0.1686
     21 C         139.9603  145.8527  161.1959 C.3     1  UNL1        0.1459
     22 O         138.9551  146.9128  160.8561 O.3     1  UNL1       -0.3813
     23 H         138.6415  147.3343  161.6715 H       1  UNL1        0.2105
     24 C         140.6007  145.0485  160.1036 C.3     1  UNL1        0.1034
     25 C         142.2990  140.9799  161.0047 C.3     1  UNL1        0.1687
     26 C         143.1730  142.1953  161.0996 C.3     1  UNL1        0.0609
     27 C         142.6068  143.5515  160.7992 C.3     1  UNL1        0.0759
     28 N         141.1668  143.6923  160.4039 N.3     1  UNL1       -0.2704
     29 C         140.2928  142.4770  160.3090 C.3     1  UNL1        0.0759
     30 C         140.8589  141.1208  160.6094 C.3     1  UNL1        0.0609
     31 O         142.8651  139.6237  161.3050 O.3     1  UNL1       -0.4794
     32 C         140.8144  137.9428  162.7083 C.3     1  UNL1        0.0342
     33 C         142.0616  138.3614  163.4289 C.ar    1  UNL1        0.0129
     34 C         142.2835  137.9394  164.8511 C.ar    1  UNL1        0.0101
     35 C         143.5307  138.3579  165.5717 C.ar    1  UNL1        0.0576
     36 CL        143.7525  137.9360  166.9940 Cl      1  UNL1       -0.0823
     37 C         144.5560  139.1984  164.8701 C.ar    1  UNL1        0.0145
     38 C         144.3342  139.6203  163.4479 C.ar    1  UNL1        0.0374
     39 C         143.0870  139.2018  162.7273 C.ar    1  UNL1        0.1344
@<TRIPOS>BOND
     1    32    33    1
     2    33    34   ar
     3    34    35   ar
     4    35    36    1
     5    35    37   ar
     6    37    38   ar
     7    38    39   ar
     8    39    31    1
     9    31    25    1
    10    25    26    1
    11    26    27    1
    12    27    28    1
    13    28    24    1
    14    24    21    1
    15    21    22    1
    16    21     1    1
    17     1     2    1
    18     2     3   am
    19     3     4    2
    20     3     6    1
    21     6     7    1
    22     7     8    2
    23     8     9    1
    24     9    10    2
    25     9    11    1
    26    11    12    2
    27    12    13    1
    28    13    17    1
    29    17    18    1
    30    17    19    2
    31    17    20    2
    32    13    14    2
    33    14    15    1
    34    15    16    1
    35    28    29    1
    36    29    30    1
    37    39    33   ar
    38    30    25    1
    39    16     6    2
    40    16    11    1
    41    22    23    1
    42     2     5    1
@<TRIPOS>MOLECULE
*****
 39 42 0 0 0
SMALL
GASTEIGER

@<TRIPOS>ATOM
      1 C         141.5714  145.3068  159.3128 C.3     1  UNL1        0.1204
      2 N         142.0908  144.6609  160.5631 N.am    1  UNL1       -0.2985
      3 C         141.4679  144.9844  161.8887 C.2     1  UNL1        0.2469
      4 O         140.3256  145.9536  161.9641 O.2     1  UNL1       -0.2701
      5 H         142.8405  144.0248  160.5136 H       1  UNL1        0.1498
      6 C         141.9873  144.3385  163.1389 C.2     1  UNL1        0.0665
      7 C         143.2941  144.7835  163.7257 C.2     1  UNL1        0.0931
      8 N         143.8135  144.1376  164.9760 N.am    1  UNL1       -0.1740
      9 C         143.0261  143.0469  165.6395 C.2     1  UNL1        0.2688
     10 O         143.5455  142.4010  166.8897 O.2     1  UNL1       -0.2680
     11 C         141.7192  142.6019  165.0527 C.2     1  UNL1        0.0532
     12 C         140.9319  141.5111  165.7161 C.2     1  UNL1        0.0223
     13 C         139.6251  141.0662  165.1294 C.2     1  UNL1        0.1019
     14 C         139.1057  141.7120  163.8791 C.2     1  UNL1       -0.0031
     15 C         139.8931  142.8028  163.2156 C.3     1  UNL1        0.0540
     16 C         141.1999  143.2477  163.8024 C.2     1  UNL1       -0.0076
     17 S         138.8377  139.9753  165.7928 S.O2    1  UNL1        0.0102
     18 C         138.0503  138.8846  166.4563 C.3     1  UNL1        0.1816
     19 O         138.0321  139.7950  164.5404 O.2     1  UNL1       -0.1686
     20 O         139.6432  140.1556  167.0452 O.2     1  UNL1       -0.1686
     21 C         141.7435  144.6235  157.9885 C.3     1  UNL1        0.1459
     22 O         142.5287  145.2891  156.8976 O.3     1  UNL1       -0.3813
     23 H         142.8533  146.1479  157.2106 H       1  UNL1        0.2105
     24 C         141.1302  143.2746  157.7553 C.3     1  UNL1        0.1034
     25 C         142.4637  139.7429  160.2047 C.3     1  UNL1        0.1687
     26 C         141.1314  140.3792  160.4696 C.3     1  UNL1        0.0609
     27 C         140.6870  141.5565  159.6531 C.3     1  UNL1        0.0759
     28 N         141.5747  142.0974  158.5718 N.3     1  UNL1       -0.2704
     29 C         142.9070  141.4610  158.3068 C.3     1  UNL1        0.0759
     30 C         143.3515  140.2838  159.1233 C.3     1  UNL1        0.0609
     31 O         142.9082  138.5657  161.0211 O.3     1  UNL1       -0.4794
     32 C         140.8022  137.3064  162.7471 C.3     1  UNL1        0.0342
     33 C         141.9431  138.0491  163.3772 C.ar    1  UNL1        0.0129
     34 C         142.0309  138.1621  164.8704 C.ar    1  UNL1        0.0101
     35 C         143.1716  138.9048  165.5005 C.ar    1  UNL1        0.0576
     36 CL        143.2594  139.0178  166.9937 Cl      1  UNL1       -0.0823
     37 C         144.2246  139.5344  164.6375 C.ar    1  UNL1        0.0145
     38 C         144.1367  139.4214  163.1443 C.ar    1  UNL1        0.0374
     39 C         142.9960  138.6787  162.5142 C.ar    1  UNL1        0.1344
@<TRIPOS>BOND
     1    32    33    1
     2    33    34   ar
     3    34    35   ar
     4    35    36    1
     5    35    37   ar
     6    37    38   ar
     7    38    39   ar
     8    39    31    1
     9    31    25    1
    10    25    26    1
    11    26    27    1
    12    27    28    1
    13    28    24    1
    14    24    21    1
    15    21    22    1
    16    21     1    1
    17     1     2    1
    18     2     3   am
    19     3     4    2
    20     3     6    1
    21     6     7    1
    22     7     8    2
    23     8     9    1
    24     9    10    2
    25     9    11    1
    26    11    12    2
    27    12    13    1
    28    13    17    1
    29    17    18    1
    30    17    19    2
    31    17    20    2
    32    13    14    2
    33    14    15    1
    34    15    16    1
    35    28    29    1
    36    29    30    1
    37    39    33   ar
    38    30    25    1
    39    16     6    2
    40    16    11    1
    41    22    23    1
    42     2     5    1
@<TRIPOS>MOLECULE
*****
 39 42 0 0 0
SMALL
GASTEIGER

@<TRIPOS>ATOM
      1 C         141.9078  142.5932  157.7714 C.3     1  UNL1        0.1204
      2 N         140.9912  142.7129  158.9528 N.am    1  UNL1       -0.2985
      3 C         141.2320  143.7748  159.9844 C.2     1  UNL1        0.2469
      4 O         142.3896  144.7171  159.8347 O.2     1  UNL1       -0.2701
      5 H         140.2315  142.0945  159.0510 H       1  UNL1        0.1498
      6 C         140.3155  143.8945  161.1657 C.2     1  UNL1        0.0665
      7 C         139.6832  145.2146  161.4937 C.2     1  UNL1        0.0931
      8 N         138.7666  145.3343  162.6751 N.am    1  UNL1       -0.1740
      9 C         138.4823  144.1339  163.5284 C.2     1  UNL1        0.2688
     10 O         137.5657  144.2536  164.7097 O.2     1  UNL1       -0.2680
     11 C         139.1145  142.8137  163.2003 C.2     1  UNL1        0.0532
     12 C         138.8301  141.6133  164.0536 C.2     1  UNL1        0.0223
     13 C         139.4624  140.2932  163.7256 C.2     1  UNL1        0.1019
     14 C         140.3789  140.1736  162.5443 C.2     1  UNL1       -0.0031
     15 C         140.6633  141.3739  161.6910 C.3     1  UNL1        0.0540
     16 C         140.0311  142.6940  162.0190 C.2     1  UNL1       -0.0076
     17 S         139.1780  139.0928  164.5789 S.O2    1  UNL1        0.0102
     18 C         138.8936  137.8924  165.4322 C.3     1  UNL1        0.1816
     19 O         140.2634  138.3345  163.8740 O.2     1  UNL1       -0.1686
     20 O         138.0926  139.8510  165.2838 O.2     1  UNL1       -0.1686
     21 C         143.3481  142.2262  157.9738 C.3     1  UNL1        0.1459
     22 O         144.4298  143.1858  157.5751 O.3     1  UNL1       -0.3813
     23 H         144.0298  143.9889  157.2063 H       1  UNL1        0.2105
     24 C         143.7066  140.8995  158.5749 C.3     1  UNL1        0.1034
     25 C         144.3329  140.5371  163.0164 C.3     1  UNL1        0.1687
     26 C         143.9461  139.3311  162.2126 C.3     1  UNL1        0.0609
     27 C         143.7374  139.4520  160.7321 C.3     1  UNL1        0.0759
     28 N         143.9154  140.7787  160.0554 N.3     1  UNL1       -0.2704
     29 C         144.3021  141.9847  160.8591 C.3     1  UNL1        0.0759
     30 C         144.5109  141.8639  162.3396 C.3     1  UNL1        0.0609
     31 O         144.5417  140.4163  164.4968 O.3     1  UNL1       -0.4794
     32 C         143.6858  138.1586  166.2774 C.3     1  UNL1        0.0342
     33 C         142.9572  139.4690  166.3249 C.ar    1  UNL1        0.0129
     34 C         141.8006  139.6505  167.2627 C.ar    1  UNL1        0.0101
     35 C         141.0720  140.9607  167.3102 C.ar    1  UNL1        0.0576
     36 CL        139.9155  141.1422  168.2480 Cl      1  UNL1       -0.0823
     37 C         141.5000  142.0895  166.4200 C.ar    1  UNL1        0.0145
     38 C         142.6565  141.9081  165.4822 C.ar    1  UNL1        0.0374
     39 C         143.3851  140.5978  165.4346 C.ar    1  UNL1        0.1344
@<TRIPOS>BOND
     1    32    33    1
     2    33    34   ar
     3    34    35   ar
     4    35    36    1
     5    35    37   ar
     6    37    38   ar
     7    38    39   ar
     8    39    31    1
     9    31    25    1
    10    25    26    1
    11    26    27    1
    12    27    28    1
    13    28    24    1
    14    24    21    1
    15    21    22    1
    16    21     1    1
    17     1     2    1
    18     2     3   am
    19     3     4    2
    20     3     6    1
    21     6     7    1
    22     7     8    2
    23     8     9    1
    24     9    10    2
    25     9    11    1
    26    11    12    2
    27    12    13    1
    28    13    17    1
    29    17    18    1
    30    17    19    2
    31    17    20    2
    32    13    14    2
    33    14    15    1
    34    15    16    1
    35    28    29    1
    36    29    30    1
    37    39    33   ar
    38    30    25    1
    39    16     6    2
    40    16    11    1
    41    22    23    1
    42     2     5    1
@<TRIPOS>MOLECULE
*****
 39 42 0 0 0
SMALL
GASTEIGER

@<TRIPOS>ATOM
      1 C         141.7680  139.7138  157.2712 C.3     1  UNL1        0.1204
      2 N         141.1868  140.5621  158.3632 N.am    1  UNL1       -0.2985
      3 C         139.7790  140.3289  158.8253 C.2     1  UNL1        0.2469
      4 O         138.9523  139.2473  158.1954 O.2     1  UNL1       -0.2701
      5 H         141.7293  141.2720  158.7766 H       1  UNL1        0.1498
      6 C         139.1978  141.1772  159.9174 C.2     1  UNL1        0.0665
      7 C         138.8223  142.6028  159.6403 C.2     1  UNL1        0.0931
      8 N         138.2411  143.4511  160.7324 N.am    1  UNL1       -0.1740
      9 C         138.0354  142.8739  162.1015 C.2     1  UNL1        0.2688
     10 O         137.4542  143.7222  163.1935 O.2     1  UNL1       -0.2680
     11 C         138.4109  141.4483  162.3786 C.2     1  UNL1        0.0532
     12 C         138.2052  140.8711  163.7477 C.2     1  UNL1        0.0223
     13 C         138.5808  139.4455  164.0247 C.2     1  UNL1        0.1019
     14 C         139.1619  138.5972  162.9327 C.2     1  UNL1       -0.0031
     15 C         139.3676  139.1744  161.5636 C.3     1  UNL1        0.0540
     16 C         138.9921  140.5999  161.2865 C.2     1  UNL1       -0.0076
     17 S         138.3751  138.8683  165.3939 S.O2    1  UNL1        0.0102
     18 C         138.1694  138.2911  166.7630 C.3     1  UNL1        0.1816
     19 O         138.8128  137.5239  164.8929 O.2     1  UNL1       -0.1686
     20 O         137.9374  140.2126  165.8949 O.2     1  UNL1       -0.1686
     21 C         142.7450  138.6259  157.6060 C.3     1  UNL1        0.1459
     22 O         143.9128  138.3624  156.7024 O.3     1  UNL1       -0.3813
     23 H         143.8878  138.9787  155.9537 H       1  UNL1        0.2105
     24 C         142.5540  137.8016  158.8446 C.3     1  UNL1        0.1034
     25 C         143.7969  139.4361  162.8489 C.3     1  UNL1        0.1687
     26 C         144.2782  140.0922  161.5888 C.3     1  UNL1        0.0609
     27 C         143.8639  139.5474  160.2540 C.3     1  UNL1        0.0759
     28 N         142.9683  138.3464  160.1794 N.3     1  UNL1       -0.2704
     29 C         142.4870  137.6903  161.4394 C.3     1  UNL1        0.0759
     30 C         142.9012  138.2351  162.7742 C.3     1  UNL1        0.0609
     31 O         144.2111  139.9808  164.1836 O.3     1  UNL1       -0.4794
     32 C         143.8246  138.0771  166.4697 C.3     1  UNL1        0.0342
     33 C         142.9828  139.3150  166.3740 C.ar    1  UNL1        0.0129
     34 C         141.9478  139.6011  167.4214 C.ar    1  UNL1        0.0101
     35 C         141.1061  140.8389  167.3257 C.ar    1  UNL1        0.0576
     36 CL        140.0711  141.1249  168.3730 Cl      1  UNL1       -0.0823
     37 C         141.2994  141.7907  166.1826 C.ar    1  UNL1        0.0145
     38 C         142.3344  141.5047  165.1353 C.ar    1  UNL1        0.0374
     39 C         143.1761  140.2669  165.2309 C.ar    1  UNL1        0.1344
@<TRIPOS>BOND
     1    32    33    1
     2    33    34   ar
     3    34    35   ar
     4    35    36    1
     5    35    37   ar
     6    37    38   ar
     7    38    39   ar
     8    39    31    1
     9    31    25    1
    10    25    26    1
    11    26    27    1
    12    27    28    1
    13    28    24    1
    14    24    21    1
    15    21    22    1
    16    21     1    1
    17     1     2    1
    18     2     3   am
    19     3     4    2
    20     3     6    1
    21     6     7    1
    22     7     8    2
    23     8     9    1
    24     9    10    2
    25     9    11    1
    26    11    12    2
    27    12    13    1
    28    13    17    1
    29    17    18    1
    30    17    19    2
    31    17    20    2
    32    13    14    2
    33    14    15    1
    34    15    16    1
    35    28    29    1
    36    29    30    1
    37    39    33   ar
    38    30    25    1
    39    16     6    2
    40    16    11    1
    41    22    23    1
    42     2     5    1
@<TRIPOS>MOLECULE
*****
 39 42 0 0 0
SMALL
GASTEIGER

@<TRIPOS>ATOM
      1 C         143.2746  143.0176  158.0265 C.3     1  UNL1        0.1204
      2 N         142.2172  142.6588  159.0281 N.am    1  UNL1       -0.2985
      3 C         141.5515  143.7346  159.8339 C.2     1  UNL1        0.2469
      4 O         141.9431  145.1693  159.6381 O.2     1  UNL1       -0.2701
      5 H         141.9602  141.7171  159.1567 H       1  UNL1        0.1498
      6 C         140.4942  143.3758  160.8356 C.2     1  UNL1        0.0665
      7 C         139.0576  143.2927  160.4125 C.2     1  UNL1        0.0931
      8 N         138.0002  142.9339  161.4142 N.am    1  UNL1       -0.1740
      9 C         138.3796  142.6581  162.8389 C.2     1  UNL1        0.2688
     10 O         137.3223  142.2993  163.8406 O.2     1  UNL1       -0.2680
     11 C         139.8163  142.7412  163.2621 C.2     1  UNL1        0.0532
     12 C         140.1957  142.4655  164.6869 C.2     1  UNL1        0.0223
     13 C         141.6323  142.5486  165.1100 C.2     1  UNL1        0.1019
     14 C         142.6896  142.9074  164.1083 C.2     1  UNL1       -0.0031
     15 C         142.3103  143.1831  162.6836 C.3     1  UNL1        0.0540
     16 C         140.8736  143.1000  162.2605 C.2     1  UNL1       -0.0076
     17 S         142.0117  142.2728  166.5348 S.O2    1  UNL1        0.0102
     18 C         142.3912  141.9971  167.9596 C.3     1  UNL1        0.1816
     19 O         140.6893  142.8136  166.9917 O.2     1  UNL1       -0.1686
     20 O         143.3341  141.7320  166.0780 O.2     1  UNL1       -0.1686
     21 C         144.5522  142.2336  157.9712 C.3     1  UNL1        0.1459
     22 O         145.8698  142.9357  158.1155 O.3     1  UNL1       -0.3813
     23 H         145.7182  143.8862  158.2364 H       1  UNL1        0.2105
     24 C         144.5122  140.7475  157.7715 C.3     1  UNL1        0.1034
     25 C         142.3334  138.1388  160.7207 C.3     1  UNL1        0.1687
     26 C         141.9698  138.0919  159.2662 C.3     1  UNL1        0.0609
     27 C         142.6961  138.9615  158.2831 C.3     1  UNL1        0.0759
     28 N         143.7860  139.8780  158.7546 N.3     1  UNL1       -0.2704
     29 C         144.1496  139.9249  160.2091 C.3     1  UNL1        0.0759
     30 C         143.4233  139.0553  161.1921 C.3     1  UNL1        0.0609
     31 O         141.6071  137.2693  161.7037 O.3     1  UNL1       -0.4794
     32 C         138.7445  138.1666  161.7132 C.3     1  UNL1        0.0342
     33 C         139.5828  138.3204  162.9476 C.ar    1  UNL1        0.0129
     34 C         138.9897  138.9228  164.1867 C.ar    1  UNL1        0.0101
     35 C         139.8280  139.0765  165.4211 C.ar    1  UNL1        0.0576
     36 CL        139.2349  139.6789  166.6602 Cl      1  UNL1       -0.0823
     37 C         141.2593  138.6279  165.4163 C.ar    1  UNL1        0.0145
     38 C         141.8523  138.0255  164.1772 C.ar    1  UNL1        0.0374
     39 C         141.0141  137.8717  162.9428 C.ar    1  UNL1        0.1344
@<TRIPOS>BOND
     1    32    33    1
     2    33    34   ar
     3    34    35   ar
     4    35    36    1
     5    35    37   ar
     6    37    38   ar
     7    38    39   ar
     8    39    31    1
     9    31    25    1
    10    25    26    1
    11    26    27    1
    12    27    28    1
    13    28    24    1
    14    24    21    1
    15    21    22    1
    16    21     1    1
    17     1     2    1
    18     2     3   am
    19     3     4    2
    20     3     6    1
    21     6     7    1
    22     7     8    2
    23     8     9    1
    24     9    10    2
    25     9    11    1
    26    11    12    2
    27    12    13    1
    28    13    17    1
    29    17    18    1
    30    17    19    2
    31    17    20    2
    32    13    14    2
    33    14    15    1
    34    15    16    1
    35    28    29    1
    36    29    30    1
    37    39    33   ar
    38    30    25    1
    39    16     6    2
    40    16    11    1
    41    22    23    1
    42     2     5    1
@<TRIPOS>MOLECULE
*****
 39 42 0 0 0
SMALL
GASTEIGER

@<TRIPOS>ATOM
      1 C         140.8997  143.3032  158.1341 C.3     1  UNL1        0.1204
      2 N         140.6283  142.1167  159.0109 N.am    1  UNL1       -0.2985
      3 C         139.2742  141.9359  159.6302 C.2     1  UNL1        0.2469
      4 O         138.1914  142.9416  159.3728 O.2     1  UNL1       -0.2701
      5 H         141.3390  141.4567  159.1799 H       1  UNL1        0.1498
      6 C         139.0028  140.7495  160.5070 C.2     1  UNL1        0.0665
      7 C         137.7343  139.9670  160.3385 C.2     1  UNL1        0.0931
      8 N         137.4629  138.7805  161.2153 N.am    1  UNL1       -0.1740
      9 C         138.4601  138.3767  162.2606 C.2     1  UNL1        0.2688
     10 O         138.1887  137.1903  163.1374 O.2     1  UNL1       -0.2680
     11 C         139.7286  139.1593  162.4291 C.2     1  UNL1        0.0532
     12 C         140.7258  138.7554  163.4744 C.2     1  UNL1        0.0223
     13 C         141.9943  139.5380  163.6428 C.2     1  UNL1        0.1019
     14 C         142.2657  140.7244  162.7660 C.2     1  UNL1       -0.0031
     15 C         141.2685  141.1283  161.7208 C.3     1  UNL1        0.0540
     16 C         140.0000  140.3457  161.5523 C.2     1  UNL1       -0.0076
     17 S         142.9915  139.1342  164.6881 S.O2    1  UNL1        0.0102
     18 C         143.9886  138.7304  165.7334 C.3     1  UNL1        0.1816
     19 O         142.2124  137.8787  164.9464 O.2     1  UNL1       -0.1686
     20 O         143.7706  140.3896  164.4298 O.2     1  UNL1       -0.1686
     21 C         141.7929  144.4061  158.6199 C.3     1  UNL1        0.1459
     22 O         143.1854  144.5371  158.0780 O.3     1  UNL1       -0.3813
     23 H         143.3470  143.8350  157.4285 H       1  UNL1        0.2105
     24 C         141.2935  145.3779  159.6475 C.3     1  UNL1        0.1034
     25 C         140.7316  144.0535  163.9113 C.3     1  UNL1        0.1687
     26 C         139.5401  144.4170  163.0757 C.3     1  UNL1        0.0609
     27 C         139.7275  144.8585  161.6543 C.3     1  UNL1        0.0759
     28 N         141.1062  144.9365  161.0688 N.3     1  UNL1       -0.2704
     29 C         142.2977  144.5730  161.9044 C.3     1  UNL1        0.0759
     30 C         142.1104  144.1315  163.3257 C.3     1  UNL1        0.0609
     31 O         140.5443  143.6120  165.3326 O.3     1  UNL1       -0.4794
     32 C         141.8025  141.7724  167.3408 C.3     1  UNL1        0.0342
     33 C         140.5453  141.3625  166.6324 C.ar    1  UNL1        0.0129
     34 C         139.9173  140.0328  166.9282 C.ar    1  UNL1        0.0101
     35 C         138.6603  139.6229  166.2199 C.ar    1  UNL1        0.0576
     36 CL        138.0323  138.2932  166.5157 Cl      1  UNL1       -0.0823
     37 C         138.0313  140.5427  165.2158 C.ar    1  UNL1        0.0145
     38 C         138.6593  141.8724  164.9200 C.ar    1  UNL1        0.0374
     39 C         139.9163  142.2823  165.6283 C.ar    1  UNL1        0.1344
@<TRIPOS>BOND
     1    32    33    1
     2    33    34   ar
     3    34    35   ar
     4    35    36    1
     5    35    37   ar
     6    37    38   ar
     7    38    39   ar
     8    39    31    1
     9    31    25    1
    10    25    26    1
    11    26    27    1
    12    27    28    1
    13    28    24    1
    14    24    21    1
    15    21    22    1
    16    21     1    1
    17     1     2    1
    18     2     3   am
    19     3     4    2
    20     3     6    1
    21     6     7    1
    22     7     8    2
    23     8     9    1
    24     9    10    2
    25     9    11    1
    26    11    12    2
    27    12    13    1
    28    13    17    1
    29    17    18    1
    30    17    19    2
    31    17    20    2
    32    13    14    2
    33    14    15    1
    34    15    16    1
    35    28    29    1
    36    29    30    1
    37    39    33   ar
    38    30    25    1
    39    16     6    2
    40    16    11    1
    41    22    23    1
    42     2     5    1
@<TRIPOS>MOLECULE
*****
 39 42 0 0 0
SMALL
GASTEIGER

@<TRIPOS>ATOM
      1 C         141.4087  143.0726  158.5282 C.3     1  UNL1        0.1204
      2 N         141.3264  143.1387  160.0245 N.am    1  UNL1       -0.2985
      3 C         139.9995  143.3389  160.6945 C.2     1  UNL1        0.2469
      4 O         138.7547  143.4731  159.8683 O.2     1  UNL1       -0.2701
      5 H         142.1434  143.0506  160.5667 H       1  UNL1        0.1498
      6 C         139.9172  143.4050  162.1908 C.2     1  UNL1        0.0665
      7 C         140.1837  144.6995  162.9001 C.2     1  UNL1        0.0931
      8 N         140.1014  144.7655  164.3964 N.am    1  UNL1       -0.1740
      9 C         139.7526  143.5371  165.1834 C.2     1  UNL1        0.2688
     10 O         139.6703  143.6032  166.6796 O.2     1  UNL1       -0.2680
     11 C         139.4861  142.2425  164.4740 C.2     1  UNL1        0.0532
     12 C         139.1373  141.0141  165.2609 C.2     1  UNL1        0.0223
     13 C         138.8708  139.7196  164.5516 C.2     1  UNL1        0.1019
     14 C         138.9531  139.6536  163.0553 C.2     1  UNL1       -0.0031
     15 C         139.3019  140.8820  162.2684 C.3     1  UNL1        0.0540
     16 C         139.5684  142.1765  162.9777 C.2     1  UNL1       -0.0076
     17 S         138.5220  138.4911  165.3385 S.O2    1  UNL1        0.0102
     18 C         138.1733  137.2626  166.1254 C.3     1  UNL1        0.1816
     19 O         138.0891  139.3508  166.4889 O.2     1  UNL1       -0.1686
     20 O         138.9550  137.6314  164.1882 O.2     1  UNL1       -0.1686
     21 C         142.7432  142.9437  157.8554 C.3     1  UNL1        0.1459
     22 O         143.1952  143.9893  156.8794 O.3     1  UNL1       -0.3813
     23 H         142.5123  144.6734  156.7991 H       1  UNL1        0.2105
     24 C         143.6257  141.7693  158.1586 C.3     1  UNL1        0.1034
     25 C         144.8227  140.8918  162.4068 C.3     1  UNL1        0.1687
     26 C         145.1065  142.2386  161.8106 C.3     1  UNL1        0.0609
     27 C         144.7075  142.5311  160.3945 C.3     1  UNL1        0.0759
     28 N         144.0247  141.4768  159.5746 N.3     1  UNL1       -0.2704
     29 C         143.7409  140.1299  160.1709 C.3     1  UNL1        0.0759
     30 C         144.1398  139.8374  161.5869 C.3     1  UNL1        0.0609
     31 O         145.2217  140.5993  163.8228 O.3     1  UNL1       -0.4794
     32 C         144.1478  143.0089  165.2513 C.3     1  UNL1        0.0342
     33 C         143.6331  141.6423  165.5944 C.ar    1  UNL1        0.0129
     34 C         142.5816  141.4806  166.6518 C.ar    1  UNL1        0.0101
     35 C         142.0669  140.1141  166.9949 C.ar    1  UNL1        0.0576
     36 CL        141.0153  139.9523  168.0523 Cl      1  UNL1       -0.0823
     37 C         142.6038  138.9093  166.2807 C.ar    1  UNL1        0.0145
     38 C         143.6554  139.0710  165.2233 C.ar    1  UNL1        0.0374
     39 C         144.1701  140.4375  164.8802 C.ar    1  UNL1        0.1344
@<TRIPOS>BOND
     1    32    33    1
     2    33    34   ar
     3    34    35   ar
     4    35    36    1
     5    35    37   ar
     6    37    38   ar
     7    38    39   ar
     8    39    31    1
     9    31    25    1
    10    25    26    1
    11    26    27    1
    12    27    28    1
    13    28    24    1
    14    24    21    1
    15    21    22    1
    16    21     1    1
    17     1     2    1
    18     2     3   am
    19     3     4    2
    20     3     6    1
    21     6     7    1
    22     7     8    2
    23     8     9    1
    24     9    10    2
    25     9    11    1
    26    11    12    2
    27    12    13    1
    28    13    17    1
    29    17    18    1
    30    17    19    2
    31    17    20    2
    32    13    14    2
    33    14    15    1
    34    15    16    1
    35    28    29    1
    36    29    30    1
    37    39    33   ar
    38    30    25    1
    39    16     6    2
    40    16    11    1
    41    22    23    1
    42     2     5    1
@<TRIPOS>MOLECULE
*****
 39 42 0 0 0
SMALL
GASTEIGER

@<TRIPOS>ATOM
      1 C         139.8459  138.4477  157.9134 C.3     1  UNL1        0.1204
      2 N         139.8214  138.3528  159.4102 N.am    1  UNL1       -0.2985
      3 C         138.7469  139.0524  160.1885 C.2     1  UNL1        0.2469
      4 O         137.6968  139.8470  159.4701 O.2     1  UNL1       -0.2701
      5 H         140.5105  137.8313  159.8817 H       1  UNL1        0.1498
      6 C         138.7223  138.9575  161.6853 C.2     1  UNL1        0.0665
      7 C         138.7180  137.6137  162.3517 C.2     1  UNL1        0.0931
      8 N         138.6935  137.5188  163.8485 N.am    1  UNL1       -0.1740
      9 C         138.6733  138.7678  164.6789 C.2     1  UNL1        0.2688
     10 O         138.6487  138.6729  166.1757 O.2     1  UNL1       -0.2680
     11 C         138.6776  140.1117  164.0126 C.2     1  UNL1        0.0532
     12 C         138.6574  141.3606  164.8430 C.2     1  UNL1        0.0223
     13 C         138.6618  142.7045  164.1767 C.2     1  UNL1        0.1019
     14 C         138.6863  142.7993  162.6799 C.2     1  UNL1       -0.0031
     15 C         138.7065  141.5504  161.8494 C.3     1  UNL1        0.0540
     16 C         138.7021  140.2066  162.5158 C.2     1  UNL1       -0.0076
     17 S         138.6416  143.9535  165.0071 S.O2    1  UNL1        0.0102
     18 C         138.6214  145.2025  165.8376 C.3     1  UNL1        0.1816
     19 O         137.6310  144.5559  164.0767 O.2     1  UNL1       -0.1686
     20 O         139.6521  143.3511  165.9376 O.2     1  UNL1       -0.1686
     21 C         140.6873  137.4962  157.1153 C.3     1  UNL1        0.1459
     22 O         140.0402  136.5658  156.1327 O.3     1  UNL1       -0.3813
     23 H         139.0806  136.7075  156.1368 H       1  UNL1        0.2105
     24 C         142.1758  137.4753  157.2998 C.3     1  UNL1        0.1034
     25 C         144.0384  139.5946  160.8054 C.3     1  UNL1        0.1687
     26 C         143.6353  138.1549  160.9272 C.3     1  UNL1        0.0609
     27 C         143.0144  137.4485  159.7586 C.3     1  UNL1        0.0759
     28 N         142.7966  138.1817  158.4683 N.3     1  UNL1       -0.2704
     29 C         143.1998  139.6214  158.3465 C.3     1  UNL1        0.0759
     30 C         143.8207  140.3278  159.5150 C.3     1  UNL1        0.0609
     31 O         144.6593  140.3010  161.9738 O.3     1  UNL1       -0.4794
     32 C         142.3055  140.2294  163.8325 C.3     1  UNL1        0.0342
     33 C         142.8866  141.5457  163.4084 C.ar    1  UNL1        0.0129
     34 C         142.2907  142.8262  163.9137 C.ar    1  UNL1        0.0101
     35 C         142.8717  144.1425  163.4896 C.ar    1  UNL1        0.0576
     36 CL        142.2758  145.4230  163.9949 Cl      1  UNL1       -0.0823
     37 C         144.0486  144.1783  162.5603 C.ar    1  UNL1        0.0145
     38 C         144.6444  142.8978  162.0550 C.ar    1  UNL1        0.0374
     39 C         144.0634  141.5815  162.4791 C.ar    1  UNL1        0.1344
@<TRIPOS>BOND
     1    32    33    1
     2    33    34   ar
     3    34    35   ar
     4    35    36    1
     5    35    37   ar
     6    37    38   ar
     7    38    39   ar
     8    39    31    1
     9    31    25    1
    10    25    26    1
    11    26    27    1
    12    27    28    1
    13    28    24    1
    14    24    21    1
    15    21    22    1
    16    21     1    1
    17     1     2    1
    18     2     3   am
    19     3     4    2
    20     3     6    1
    21     6     7    1
    22     7     8    2
    23     8     9    1
    24     9    10    2
    25     9    11    1
    26    11    12    2
    27    12    13    1
    28    13    17    1
    29    17    18    1
    30    17    19    2
    31    17    20    2
    32    13    14    2
    33    14    15    1
    34    15    16    1
    35    28    29    1
    36    29    30    1
    37    39    33   ar
    38    30    25    1
    39    16     6    2
    40    16    11    1
    41    22    23    1
    42     2     5    1
