@<TRIPOS>MOLECULE
*****
 30 33 0 0 0
SMALL
GASTEIGER

@<TRIPOS>ATOM
      1 N         142.7224  139.7401  162.4109 N.am    1  UNL1       -0.2638
      2 C         143.3005  138.8449  163.4664 C.3     1  UNL1        0.1164
      3 C         141.9703  140.9765  162.8056 C.2     1  UNL1        0.3078
      4 O         141.3921  141.8717  161.7500 O.2     1  UNL1       -0.2523
      5 N         141.7964  141.3177  164.2559 N.am    1  UNL1       -0.2540
      6 C         142.3156  140.5225  165.4171 C.3     1  UNL1        0.1221
      7 C         141.9129  141.2273  166.6785 C.2     1  UNL1       -0.0024
      8 C         141.1449  142.4579  166.2970 C.2     1  UNL1       -0.0047
      9 C         141.0729  142.5138  164.7997 C.3     1  UNL1        0.1217
     10 C         142.2237  140.7798  168.0761 C.ar    1  UNL1        0.0271
     11 C         142.5092  139.3338  168.3546 C.ar    1  UNL1        0.0316
     12 C         142.8200  138.8864  169.7521 C.ar    1  UNL1        0.1403
     13 F         143.1054  137.4403  170.0307 F       1  UNL1       -0.2042
     14 C         142.8453  139.8850  170.8712 C.ar    1  UNL1        0.0319
     15 C         142.5599  141.3310  170.5927 C.ar    1  UNL1        0.0319
     16 C         142.2491  141.7784  169.1951 C.ar    1  UNL1        0.1400
     17 F         141.9636  143.2244  168.9166 F       1  UNL1       -0.2042
     18 C         143.4177  138.3756  156.6096 C.3     1  UNL1        0.0896
     19 N         143.2439  138.7167  158.0599 N.3     1  UNL1       -0.2714
     20 C         143.8224  139.9886  158.6058 C.3     1  UNL1        0.0738
     21 C         143.6485  140.3297  160.0561 C.3     1  UNL1        0.0372
     22 C         142.8962  139.3990  160.9605 C.3     1  UNL1        0.0797
     23 C         142.3178  138.1273  160.4146 C.3     1  UNL1        0.0372
     24 C         142.4916  137.7861  158.9643 C.3     1  UNL1        0.0738
     25 C         140.3962  143.5788  163.9887 C.ar    1  UNL1       -0.0001
     26 C         138.9234  143.4932  163.7179 C.ar    1  UNL1       -0.0023
     27 C         138.2467  144.5583  162.9069 C.ar    1  UNL1       -0.0003
     28 C         139.0429  145.7090  162.3667 C.ar    1  UNL1       -0.0000
     29 C         140.5158  145.7947  162.6375 C.ar    1  UNL1       -0.0003
     30 C         141.1925  144.7296  163.4485 C.ar    1  UNL1       -0.0023
@<TRIPOS>BOND
     1    18    19    1
     2    19    20    1
     3    20    21    1
     4    21    22    1
     5    22     1    1
     6     1     2    1
     7     1     3   am
     8     3     4    2
     9     3     5   am
    10     5     6    1
    11     6     7    1
    12     7    10    1
    13    10    11   ar
    14    11    12   ar
    15    12    13    1
    16    12    14   ar
    17    14    15   ar
    18    15    16   ar
    19    16    17    1
    20     7     8    2
    21     8     9    1
    22     9    25    1
    23    25    26   ar
    24    26    27   ar
    25    27    28   ar
    26    28    29   ar
    27    29    30   ar
    28    22    23    1
    29    23    24    1
    30    24    19    1
    31     9     5    1
    32    30    25   ar
    33    16    10   ar
@<TRIPOS>MOLECULE
*****
 30 33 0 0 0
SMALL
GASTEIGER

@<TRIPOS>ATOM
      1 N         141.2758  139.0043  161.8934 N.am    1  UNL1       -0.2638
      2 C         141.6426  137.9604  162.9062 C.3     1  UNL1        0.1164
      3 C         140.9517  140.3997  162.3382 C.2     1  UNL1        0.3078
      4 O         140.5849  141.4436  161.3254 O.2     1  UNL1       -0.2523
      5 N         140.9943  140.7512  163.7958 N.am    1  UNL1       -0.2540
      6 C         141.3421  139.8184  164.9179 C.3     1  UNL1        0.1221
      7 C         141.2594  140.5879  166.2029 C.2     1  UNL1       -0.0024
      8 C         140.8605  141.9962  165.8750 C.2     1  UNL1       -0.0047
      9 C         140.6967  142.0971  164.3873 C.3     1  UNL1        0.1217
     10 C         141.5284  140.0444  167.5748 C.ar    1  UNL1        0.0271
     11 C         140.5719  140.3285  168.6948 C.ar    1  UNL1        0.0316
     12 C         140.8408  139.7850  170.0668 C.ar    1  UNL1        0.1403
     13 F         139.8843  140.0690  171.1868 F       1  UNL1       -0.2042
     14 C         142.0663  138.9575  170.3187 C.ar    1  UNL1        0.0319
     15 C         143.0228  138.6734  169.1987 C.ar    1  UNL1        0.0319
     16 C         142.7538  139.2169  167.8268 C.ar    1  UNL1        0.1400
     17 F         143.7103  138.9328  166.7068 F       1  UNL1       -0.2042
     18 C         141.1052  137.5985  156.0629 C.3     1  UNL1        0.0896
     19 N         141.1479  137.9499  157.5205 N.3     1  UNL1       -0.2714
     20 C         142.4613  137.9910  158.2440 C.3     1  UNL1        0.0738
     21 C         142.5039  138.3424  159.7016 C.3     1  UNL1        0.0372
     22 C         141.2332  138.6528  160.4358 C.3     1  UNL1        0.0797
     23 C         139.9199  138.6118  159.7123 C.3     1  UNL1        0.0372
     24 C         139.8772  138.2603  158.2547 C.3     1  UNL1        0.0738
     25 C         140.3041  143.3279  163.6251 C.ar    1  UNL1       -0.0001
     26 C         141.3611  144.2485  163.0913 C.ar    1  UNL1       -0.0023
     27 C         140.9686  145.4793  162.3290 C.ar    1  UNL1       -0.0003
     28 C         139.5189  145.7894  162.1006 C.ar    1  UNL1       -0.0000
     29 C         138.4618  144.8688  162.6344 C.ar    1  UNL1       -0.0003
     30 C         138.8543  143.6380  163.3967 C.ar    1  UNL1       -0.0023
@<TRIPOS>BOND
     1    18    19    1
     2    19    20    1
     3    20    21    1
     4    21    22    1
     5    22     1    1
     6     1     2    1
     7     1     3   am
     8     3     4    2
     9     3     5   am
    10     5     6    1
    11     6     7    1
    12     7    10    1
    13    10    11   ar
    14    11    12   ar
    15    12    13    1
    16    12    14   ar
    17    14    15   ar
    18    15    16   ar
    19    16    17    1
    20     7     8    2
    21     8     9    1
    22     9    25    1
    23    25    26   ar
    24    26    27   ar
    25    27    28   ar
    26    28    29   ar
    27    29    30   ar
    28    22    23    1
    29    23    24    1
    30    24    19    1
    31     9     5    1
    32    30    25   ar
    33    16    10   ar
@<TRIPOS>MOLECULE
*****
 30 33 0 0 0
SMALL
GASTEIGER

@<TRIPOS>ATOM
      1 N         141.6572  143.7984  161.9147 N.am    1  UNL1       -0.2638
      2 C         142.2890  144.6319  162.9898 C.3     1  UNL1        0.1164
      3 C         140.8816  142.5671  162.2787 C.2     1  UNL1        0.3078
      4 O         140.2498  141.7335  161.2036 O.2     1  UNL1       -0.2523
      5 N         140.7379  142.1694  163.7179 N.am    1  UNL1       -0.2540
      6 C         141.3109  142.9002  164.8960 C.3     1  UNL1        0.1221
      7 C         140.9231  142.1535  166.1378 C.2     1  UNL1       -0.0024
      8 C         140.1105  140.9614  165.7273 C.2     1  UNL1       -0.0047
      9 C         139.9961  140.9712  164.2317 C.3     1  UNL1        0.1217
     10 C         141.2844  142.5325  167.5434 C.ar    1  UNL1        0.0271
     11 C         140.2899  143.2522  168.4054 C.ar    1  UNL1        0.0316
     12 C         140.6513  143.6312  169.8110 C.ar    1  UNL1        0.1403
     13 F         139.6567  144.3509  170.6731 F       1  UNL1       -0.2042
     14 C         142.0072  143.2906  170.3547 C.ar    1  UNL1        0.0319
     15 C         143.0017  142.5709  169.4927 C.ar    1  UNL1        0.0319
     16 C         142.6403  142.1919  168.0871 C.ar    1  UNL1        0.1400
     17 F         143.6349  141.4723  167.2251 F       1  UNL1       -0.2042
     18 C         142.2320  145.3890  156.1580 C.3     1  UNL1        0.0896
     19 N         142.0883  144.9914  157.5972 N.3     1  UNL1       -0.2714
     20 C         141.0967  145.6962  158.4746 C.3     1  UNL1        0.0738
     21 C         140.9530  145.2986  159.9138 C.3     1  UNL1        0.0372
     22 C         141.8009  144.1960  160.4755 C.3     1  UNL1        0.0797
     23 C         142.7925  143.4912  159.5981 C.3     1  UNL1        0.0372
     24 C         142.9362  143.8889  158.1589 C.3     1  UNL1        0.0738
     25 C         139.2677  139.9603  163.3965 C.ar    1  UNL1       -0.0001
     26 C         139.7167  138.5292  163.3900 C.ar    1  UNL1       -0.0023
     27 C         138.9883  137.5183  162.5549 C.ar    1  UNL1       -0.0003
     28 C         137.8108  137.9386  161.7262 C.ar    1  UNL1       -0.0000
     29 C         137.3617  139.3697  161.7327 C.ar    1  UNL1       -0.0003
     30 C         138.0901  140.3806  162.5678 C.ar    1  UNL1       -0.0023
@<TRIPOS>BOND
     1    18    19    1
     2    19    20    1
     3    20    21    1
     4    21    22    1
     5    22     1    1
     6     1     2    1
     7     1     3   am
     8     3     4    2
     9     3     5   am
    10     5     6    1
    11     6     7    1
    12     7    10    1
    13    10    11   ar
    14    11    12   ar
    15    12    13    1
    16    12    14   ar
    17    14    15   ar
    18    15    16   ar
    19    16    17    1
    20     7     8    2
    21     8     9    1
    22     9    25    1
    23    25    26   ar
    24    26    27   ar
    25    27    28   ar
    26    28    29   ar
    27    29    30   ar
    28    22    23    1
    29    23    24    1
    30    24    19    1
    31     9     5    1
    32    30    25   ar
    33    16    10   ar
@<TRIPOS>MOLECULE
*****
 30 33 0 0 0
SMALL
GASTEIGER

@<TRIPOS>ATOM
      1 N         141.5291  139.4626  163.0890 N.am    1  UNL1       -0.2638
      2 C         141.7044  138.5987  164.3026 C.3     1  UNL1        0.1164
      3 C         141.0937  140.8900  163.2410 C.2     1  UNL1        0.3078
      4 O         140.9184  141.7539  162.0274 O.2     1  UNL1       -0.2523
      5 N         140.8335  141.4534  164.6066 N.am    1  UNL1       -0.2540
      6 C         140.9658  140.7143  165.9052 C.3     1  UNL1        0.1221
      7 C         140.6094  141.6590  167.0145 C.2     1  UNL1       -0.0024
      8 C         140.2568  142.9818  166.4016 C.2     1  UNL1       -0.0047
      9 C         140.3953  142.8548  164.9134 C.3     1  UNL1        0.1217
     10 C         140.6061  141.3372  168.4796 C.ar    1  UNL1        0.0271
     11 C         141.5432  142.0529  169.4067 C.ar    1  UNL1        0.0316
     12 C         141.5400  141.7311  170.8718 C.ar    1  UNL1        0.1403
     13 F         142.4771  142.4468  171.7990 F       1  UNL1       -0.2042
     14 C         140.5996  140.6936  171.4097 C.ar    1  UNL1        0.0319
     15 C         139.6625  139.9779  170.4826 C.ar    1  UNL1        0.0319
     16 C         139.6658  140.2996  169.0176 C.ar    1  UNL1        0.1400
     17 F         138.7287  139.5839  168.0904 F       1  UNL1       -0.2042
     18 C         142.5699  137.2090  157.6266 C.3     1  UNL1        0.0896
     19 N         142.3097  137.7724  158.9922 N.3     1  UNL1       -0.2714
     20 C         141.0078  138.4574  159.2853 C.3     1  UNL1        0.0738
     21 C         140.7476  139.0208  160.6510 C.3     1  UNL1        0.0372
     22 C         141.7893  138.8992  161.7234 C.3     1  UNL1        0.0797
     23 C         143.0911  138.2142  161.4303 C.3     1  UNL1        0.0372
     24 C         143.3513  137.6508  160.0646 C.3     1  UNL1        0.0738
     25 C         140.1404  143.9388  163.9085 C.ar    1  UNL1       -0.0001
     26 C         141.2706  144.8043  163.4359 C.ar    1  UNL1       -0.0023
     27 C         141.0156  145.8884  162.4310 C.ar    1  UNL1       -0.0003
     28 C         139.6304  146.1068  161.8987 C.ar    1  UNL1       -0.0000
     29 C         138.5001  145.2413  162.3713 C.ar    1  UNL1       -0.0003
     30 C         138.7551  144.1573  163.3762 C.ar    1  UNL1       -0.0023
@<TRIPOS>BOND
     1    18    19    1
     2    19    20    1
     3    20    21    1
     4    21    22    1
     5    22     1    1
     6     1     2    1
     7     1     3   am
     8     3     4    2
     9     3     5   am
    10     5     6    1
    11     6     7    1
    12     7    10    1
    13    10    11   ar
    14    11    12   ar
    15    12    13    1
    16    12    14   ar
    17    14    15   ar
    18    15    16   ar
    19    16    17    1
    20     7     8    2
    21     8     9    1
    22     9    25    1
    23    25    26   ar
    24    26    27   ar
    25    27    28   ar
    26    28    29   ar
    27    29    30   ar
    28    22    23    1
    29    23    24    1
    30    24    19    1
    31     9     5    1
    32    30    25   ar
    33    16    10   ar
@<TRIPOS>MOLECULE
*****
 30 33 0 0 0
SMALL
GASTEIGER

@<TRIPOS>ATOM
      1 N         140.1606  143.4774  161.9419 N.am    1  UNL1       -0.2638
      2 C         139.5319  144.2295  163.0773 C.3     1  UNL1        0.1164
      3 C         140.8974  142.1979  162.2066 C.2     1  UNL1        0.3078
      4 O         141.5260  141.4458  161.0712 O.2     1  UNL1       -0.2523
      5 N         141.0055  141.6705  163.6066 N.am    1  UNL1       -0.2540
      6 C         140.4312  142.3095  164.8363 C.3     1  UNL1        0.1221
      7 C         140.7777  141.4454  166.0125 C.2     1  UNL1       -0.0024
      8 C         141.5660  140.2724  165.5098 C.2     1  UNL1       -0.0047
      9 C         141.7068  140.4116  164.0229 C.3     1  UNL1        0.1217
     10 C         140.4017  141.7082  167.4406 C.ar    1  UNL1        0.0271
     11 C         140.6894  143.0445  168.0581 C.ar    1  UNL1        0.0316
     12 C         140.3135  143.3073  169.4863 C.ar    1  UNL1        0.1403
     13 F         140.6011  144.6438  170.1039 F       1  UNL1       -0.2042
     14 C         139.6499  142.2337  170.2969 C.ar    1  UNL1        0.0319
     15 C         139.3622  140.8974  169.6794 C.ar    1  UNL1        0.0319
     16 C         139.7381  140.6346  168.2513 C.ar    1  UNL1        0.1400
     17 F         139.4505  139.2982  167.6338 F       1  UNL1       -0.2042
     18 C         139.7281  145.5870  156.3417 C.3     1  UNL1        0.0896
     19 N         139.8362  145.0596  157.7417 N.3     1  UNL1       -0.2714
     20 C         140.5355  145.8666  158.7953 C.3     1  UNL1        0.0738
     21 C         140.6436  145.3392  160.1953 C.3     1  UNL1        0.0372
     22 C         140.0524  144.0048  160.5419 C.3     1  UNL1        0.0797
     23 C         139.3532  143.1979  159.4884 C.3     1  UNL1        0.0372
     24 C         139.2451  143.7253  158.0883 C.3     1  UNL1        0.0738
     25 C         142.4231  139.4590  163.1121 C.ar    1  UNL1       -0.0001
     26 C         143.9009  139.5968  162.8951 C.ar    1  UNL1       -0.0023
     27 C         144.6172  138.6442  161.9843 C.ar    1  UNL1       -0.0003
     28 C         143.8557  137.5538  161.2907 C.ar    1  UNL1       -0.0000
     29 C         142.3779  137.4160  161.5077 C.ar    1  UNL1       -0.0003
     30 C         141.6616  138.3686  162.4185 C.ar    1  UNL1       -0.0023
@<TRIPOS>BOND
     1    18    19    1
     2    19    20    1
     3    20    21    1
     4    21    22    1
     5    22     1    1
     6     1     2    1
     7     1     3   am
     8     3     4    2
     9     3     5   am
    10     5     6    1
    11     6     7    1
    12     7    10    1
    13    10    11   ar
    14    11    12   ar
    15    12    13    1
    16    12    14   ar
    17    14    15   ar
    18    15    16   ar
    19    16    17    1
    20     7     8    2
    21     8     9    1
    22     9    25    1
    23    25    26   ar
    24    26    27   ar
    25    27    28   ar
    26    28    29   ar
    27    29    30   ar
    28    22    23    1
    29    23    24    1
    30    24    19    1
    31     9     5    1
    32    30    25   ar
    33    16    10   ar
@<TRIPOS>MOLECULE
*****
 30 33 0 0 0
SMALL
GASTEIGER

@<TRIPOS>ATOM
      1 N         141.1169  139.4287  164.4946 N.am    1  UNL1       -0.2638
      2 C         141.4066  138.1094  163.8423 C.3     1  UNL1        0.1164
      3 C         140.7777  140.6232  163.6530 C.2     1  UNL1        0.3078
      4 O         140.4880  141.9424  164.3053 O.2     1  UNL1       -0.2523
      5 N         140.7283  140.4983  162.1590 N.am    1  UNL1       -0.2540
      6 C         140.9930  139.2507  161.3693 C.3     1  UNL1        0.1221
      7 C         140.8338  139.5805  159.9146 C.2     1  UNL1       -0.0024
      8 C         140.4707  141.0318  159.8053 C.2     1  UNL1       -0.0047
      9 C         140.4055  141.5990  161.1924 C.3     1  UNL1        0.1217
     10 C         141.0073  138.6264  158.7702 C.ar    1  UNL1        0.0271
     11 C         139.8373  138.2822  157.8969 C.ar    1  UNL1        0.0316
     12 C         140.0108  137.3281  156.7525 C.ar    1  UNL1        0.1403
     13 F         138.8408  136.9838  155.8791 F       1  UNL1       -0.2042
     14 C         141.3542  136.7182  156.4815 C.ar    1  UNL1        0.0319
     15 C         142.5241  137.0625  157.3548 C.ar    1  UNL1        0.0319
     16 C         142.3506  138.0165  158.4992 C.ar    1  UNL1        0.1400
     17 F         143.5206  138.3608  159.3725 F       1  UNL1       -0.2042
     18 C         141.3145  139.9282  170.4705 C.3     1  UNL1        0.0896
     19 N         141.2651  139.8033  168.9765 N.3     1  UNL1       -0.2714
     20 C         139.9564  139.9369  168.2556 C.3     1  UNL1        0.0738
     21 C         139.9070  139.8120  166.7617 C.3     1  UNL1        0.0372
     22 C         141.1663  139.5536  165.9886 C.3     1  UNL1        0.0797
     23 C         142.4748  139.4200  166.7095 C.3     1  UNL1        0.0372
     24 C         142.5242  139.5449  168.2035 C.3     1  UNL1        0.0738
     25 C         140.0755  143.0178  161.5501 C.ar    1  UNL1       -0.0001
     26 C         141.1033  144.0953  161.3700 C.ar    1  UNL1       -0.0023
     27 C         140.7733  145.5141  161.7277 C.ar    1  UNL1       -0.0003
     28 C         139.4153  145.8554  162.2655 C.ar    1  UNL1       -0.0000
     29 C         138.3874  144.7780  162.4457 C.ar    1  UNL1       -0.0003
     30 C         138.7174  143.3592  162.0880 C.ar    1  UNL1       -0.0023
@<TRIPOS>BOND
     1    18    19    1
     2    19    20    1
     3    20    21    1
     4    21    22    1
     5    22     1    1
     6     1     2    1
     7     1     3   am
     8     3     4    2
     9     3     5   am
    10     5     6    1
    11     6     7    1
    12     7    10    1
    13    10    11   ar
    14    11    12   ar
    15    12    13    1
    16    12    14   ar
    17    14    15   ar
    18    15    16   ar
    19    16    17    1
    20     7     8    2
    21     8     9    1
    22     9    25    1
    23    25    26   ar
    24    26    27   ar
    25    27    28   ar
    26    28    29   ar
    27    29    30   ar
    28    22    23    1
    29    23    24    1
    30    24    19    1
    31     9     5    1
    32    30    25   ar
    33    16    10   ar
@<TRIPOS>MOLECULE
*****
 30 33 0 0 0
SMALL
GASTEIGER

@<TRIPOS>ATOM
      1 N         141.5980  144.0602  161.7287 N.am    1  UNL1       -0.2638
      2 C         141.4473  144.9754  162.9075 C.3     1  UNL1        0.1164
      3 C         141.9150  142.6095  161.9411 C.2     1  UNL1        0.3078
      4 O         142.0656  141.6943  160.7623 O.2     1  UNL1       -0.2523
      5 N         142.0813  142.0741  163.3324 N.am    1  UNL1       -0.2540
      6 C         141.9607  142.8645  164.6016 C.3     1  UNL1        0.1221
      7 C         142.2023  141.9331  165.7524 C.2     1  UNL1       -0.0024
      8 C         142.4723  140.5672  165.1944 C.2     1  UNL1       -0.0047
      9 C         142.3975  140.6543  163.6988 C.3     1  UNL1        0.1217
     10 C         142.1782  142.3029  167.2059 C.ar    1  UNL1        0.0271
     11 C         143.4374  142.2348  168.0180 C.ar    1  UNL1        0.0316
     12 C         143.4133  142.6045  169.4715 C.ar    1  UNL1        0.1403
     13 F         144.6726  142.5364  170.2838 F       1  UNL1       -0.2042
     14 C         142.1300  143.0424  170.1129 C.ar    1  UNL1        0.0319
     15 C         140.8707  143.1105  169.3007 C.ar    1  UNL1        0.0319
     16 C         140.8948  142.7407  167.8472 C.ar    1  UNL1        0.1400
     17 F         139.6356  142.8088  167.0350 F       1  UNL1       -0.2042
     18 C         140.9326  146.2019  156.1636 C.3     1  UNL1        0.0896
     19 N         141.0989  145.6665  157.5549 N.3     1  UNL1       -0.2714
     20 C         142.2800  144.8048  157.8906 C.3     1  UNL1        0.0738
     21 C         142.4463  144.2693  159.2819 C.3     1  UNL1        0.0372
     22 C         141.4316  144.5956  160.3374 C.3     1  UNL1        0.0797
     23 C         140.2507  145.4573  160.0016 C.3     1  UNL1        0.0372
     24 C         140.0843  145.9927  158.6103 C.3     1  UNL1        0.0738
     25 C         142.6028  139.5206  162.7383 C.ar    1  UNL1       -0.0001
     26 C         141.4223  138.7572  162.2156 C.ar    1  UNL1       -0.0023
     27 C         141.6276  137.6235  161.2551 C.ar    1  UNL1       -0.0003
     28 C         143.0137  137.2534  160.8172 C.ar    1  UNL1       -0.0000
     29 C         144.1944  138.0168  161.3398 C.ar    1  UNL1       -0.0003
     30 C         143.9890  139.1505  162.3003 C.ar    1  UNL1       -0.0023
@<TRIPOS>BOND
     1    18    19    1
     2    19    20    1
     3    20    21    1
     4    21    22    1
     5    22     1    1
     6     1     2    1
     7     1     3   am
     8     3     4    2
     9     3     5   am
    10     5     6    1
    11     6     7    1
    12     7    10    1
    13    10    11   ar
    14    11    12   ar
    15    12    13    1
    16    12    14   ar
    17    14    15   ar
    18    15    16   ar
    19    16    17    1
    20     7     8    2
    21     8     9    1
    22     9    25    1
    23    25    26   ar
    24    26    27   ar
    25    27    28   ar
    26    28    29   ar
    27    29    30   ar
    28    22    23    1
    29    23    24    1
    30    24    19    1
    31     9     5    1
    32    30    25   ar
    33    16    10   ar
@<TRIPOS>MOLECULE
*****
 30 33 0 0 0
SMALL
GASTEIGER

@<TRIPOS>ATOM
      1 N         144.3611  142.6964  158.9171 N.am    1  UNL1       -0.2638
      2 C         144.6022  142.3240  160.3499 C.3     1  UNL1        0.1164
      3 C         143.0619  143.3293  158.5150 C.2     1  UNL1        0.3078
      4 O         142.8207  143.7016  157.0821 O.2     1  UNL1       -0.2523
      5 N         142.0038  143.5897  159.5459 N.am    1  UNL1       -0.2540
      6 C         142.1014  143.2732  161.0089 C.3     1  UNL1        0.1221
      7 C         140.8202  143.7003  161.6619 C.2     1  UNL1       -0.0024
      8 C         139.9309  144.2807  160.6025 C.2     1  UNL1       -0.0047
      9 C         140.6624  144.2123  159.2947 C.3     1  UNL1        0.1217
     10 C         140.4870  143.5699  163.1186 C.ar    1  UNL1        0.0271
     11 C         139.6282  144.6023  163.7868 C.ar    1  UNL1        0.0316
     12 C         139.2950  144.4719  165.2435 C.ar    1  UNL1        0.1403
     13 F         138.4362  145.5043  165.9118 F       1  UNL1       -0.2042
     14 C         139.8205  143.3090  166.0320 C.ar    1  UNL1        0.0319
     15 C         140.6793  142.2766  165.3637 C.ar    1  UNL1        0.0319
     16 C         141.0125  142.4070  163.9070 C.ar    1  UNL1        0.1400
     17 F         141.8713  141.3746  163.2388 F       1  UNL1       -0.2042
     18 C         148.5933  141.6546  154.7936 C.3     1  UNL1        0.0896
     19 N         147.5353  141.9151  155.8245 N.3     1  UNL1       -0.2714
     20 C         147.8209  142.8310  156.9776 C.3     1  UNL1        0.0738
     21 C         146.7629  143.0914  158.0085 C.3     1  UNL1        0.0372
     22 C         145.4191  142.4360  157.8862 C.3     1  UNL1        0.0797
     23 C         145.1335  141.5201  156.7332 C.3     1  UNL1        0.0372
     24 C         146.1916  141.2597  155.7023 C.3     1  UNL1        0.0738
     25 C         140.1436  144.6838  157.9687 C.ar    1  UNL1       -0.0001
     26 C         139.4040  143.7354  157.0724 C.ar    1  UNL1       -0.0023
     27 C         138.8851  144.2068  155.7463 C.ar    1  UNL1       -0.0003
     28 C         139.1059  145.6269  155.3166 C.ar    1  UNL1       -0.0000
     29 C         139.8456  146.5754  156.2128 C.ar    1  UNL1       -0.0003
     30 C         140.3644  146.1039  157.5389 C.ar    1  UNL1       -0.0023
@<TRIPOS>BOND
     1    18    19    1
     2    19    20    1
     3    20    21    1
     4    21    22    1
     5    22     1    1
     6     1     2    1
     7     1     3   am
     8     3     4    2
     9     3     5   am
    10     5     6    1
    11     6     7    1
    12     7    10    1
    13    10    11   ar
    14    11    12   ar
    15    12    13    1
    16    12    14   ar
    17    14    15   ar
    18    15    16   ar
    19    16    17    1
    20     7     8    2
    21     8     9    1
    22     9    25    1
    23    25    26   ar
    24    26    27   ar
    25    27    28   ar
    26    28    29   ar
    27    29    30   ar
    28    22    23    1
    29    23    24    1
    30    24    19    1
    31     9     5    1
    32    30    25   ar
    33    16    10   ar
@<TRIPOS>MOLECULE
*****
 30 33 0 0 0
SMALL
GASTEIGER

@<TRIPOS>ATOM
      1 N         146.9186  142.5769  157.0339 N.am    1  UNL1       -0.2638
      2 C         147.4361  143.3082  158.2370 C.3     1  UNL1        0.1164
      3 C         145.5981  141.8682  157.0976 C.2     1  UNL1        0.3078
      4 O         145.0806  141.1369  155.8945 O.2     1  UNL1       -0.2523
      5 N         144.7951  141.8908  158.3643 N.am    1  UNL1       -0.2540
      6 C         145.1816  142.5767  159.6412 C.3     1  UNL1        0.1221
      7 C         144.0899  142.3412  160.6426 C.2     1  UNL1       -0.0024
      8 C         143.0287  141.5099  159.9847 C.2     1  UNL1       -0.0047
      9 C         143.4646  141.2315  158.5767 C.3     1  UNL1        0.1217
     10 C         144.0640  142.8482  162.0541 C.ar    1  UNL1        0.0271
     11 C         143.3986  144.1550  162.3695 C.ar    1  UNL1        0.0316
     12 C         143.3727  144.6620  163.7810 C.ar    1  UNL1        0.1403
     13 F         142.7074  145.9689  164.0964 F       1  UNL1       -0.2042
     14 C         144.0122  143.8621  164.8771 C.ar    1  UNL1        0.0319
     15 C         144.6775  142.5553  164.5616 C.ar    1  UNL1        0.0319
     16 C         144.7034  142.0483  163.1502 C.ar    1  UNL1        0.1400
     17 F         145.3687  140.7415  162.8347 F       1  UNL1       -0.2042
     18 C         150.1307  142.4866  151.9670 C.3     1  UNL1        0.0896
     19 N         149.3277  142.5092  153.2337 N.3     1  UNL1       -0.2714
     20 C         148.0744  143.3296  153.3127 C.3     1  UNL1        0.0738
     21 C         147.2713  143.3522  154.5794 C.3     1  UNL1        0.0372
     22 C         147.7216  142.5543  155.7672 C.3     1  UNL1        0.0797
     23 C         148.9749  141.7340  155.6882 C.3     1  UNL1        0.0372
     24 C         149.7780  141.7114  154.4215 C.3     1  UNL1        0.0738
     25 C         142.7035  140.4338  157.5596 C.ar    1  UNL1       -0.0001
     26 C         142.8617  138.9433  157.5040 C.ar    1  UNL1       -0.0023
     27 C         142.1006  138.1456  156.4869 C.ar    1  UNL1       -0.0003
     28 C         141.1813  138.8386  155.5254 C.ar    1  UNL1       -0.0000
     29 C         141.0230  140.3292  155.5809 C.ar    1  UNL1       -0.0003
     30 C         141.7841  141.1269  156.5980 C.ar    1  UNL1       -0.0023
@<TRIPOS>BOND
     1    18    19    1
     2    19    20    1
     3    20    21    1
     4    21    22    1
     5    22     1    1
     6     1     2    1
     7     1     3   am
     8     3     4    2
     9     3     5   am
    10     5     6    1
    11     6     7    1
    12     7    10    1
    13    10    11   ar
    14    11    12   ar
    15    12    13    1
    16    12    14   ar
    17    14    15   ar
    18    15    16   ar
    19    16    17    1
    20     7     8    2
    21     8     9    1
    22     9    25    1
    23    25    26   ar
    24    26    27   ar
    25    27    28   ar
    26    28    29   ar
    27    29    30   ar
    28    22    23    1
    29    23    24    1
    30    24    19    1
    31     9     5    1
    32    30    25   ar
    33    16    10   ar
