@<TRIPOS>MOLECULE
*****
 33 36 0 0 0
SMALL
GASTEIGER

@<TRIPOS>ATOM
      1 N         138.8499  140.1452  160.1848 N.pl3   1  UNL1       -0.2847
      2 C         138.5544  140.7431  161.5283 C.3     1  UNL1        0.1141
      3 C         139.0074  140.0447  162.7761 C.3     1  UNL1        0.1149
      4 N         139.7560  138.7484  162.6804 N.am    1  UNL1       -0.2760
      5 C         140.2091  138.0501  163.9282 C.2     1  UNL1        0.2257
      6 O         140.9577  136.7538  163.8325 O.2     1  UNL1       -0.2749
      7 C         140.0516  138.1505  161.3368 C.3     1  UNL1        0.1149
      8 C         139.5985  138.8489  160.0891 C.3     1  UNL1        0.1141
      9 C         139.9135  138.6480  165.2717 C.3     1  UNL1        0.0853
     10 C         138.5382  138.5302  165.8589 C.3     1  UNL1        0.0096
     11 C         138.2427  139.1282  167.2025 C.3     1  UNL1        0.0005
     12 C         139.3224  139.8439  167.9588 C.3     1  UNL1        0.0005
     13 C         140.6977  139.9616  167.3716 C.3     1  UNL1        0.0096
     14 C         140.9932  139.3637  166.0281 C.3     1  UNL1        0.0851
     15 C         142.3685  139.4814  165.4409 C.2     1  UNL1        0.2231
     16 O         143.4570  138.5510  165.8879 O.2     1  UNL1       -0.2751
     17 N         142.6553  140.5294  164.4069 N.am    1  UNL1       -0.2959
     18 H         141.9409  141.1400  164.1136 H       1  UNL1        0.1502
     19 C         144.0306  140.6471  163.8197 C.3     1  UNL1        0.1364
     20 C         145.4128  141.1690  163.5611 C.3     1  UNL1        0.0353
     21 C         144.5286  141.8516  164.5621 C.3     1  UNL1        0.0353
     22 C         144.0102  139.4835  162.8733 C.1     1  UNL1        0.0896
     23 N         143.9898  138.3199  161.9270 N.1     1  UNL1       -0.1943
     24 C         138.1226  142.5114  157.1952 C.ar    1  UNL1        0.0415
     25 C         137.2767  141.3251  156.8384 C.ar    1  UNL1        0.1040
     26 N         137.4462  140.2944  157.9149 N.ar    1  UNL1       -0.2228
     27 C         138.3969  140.8436  158.9370 C.ar    1  UNL1        0.1629
     28 S         138.8149  142.2138  158.4922 S.2     1  UNL1       -0.0549
     29 C         139.5640  144.0624  157.0652 C.3     1  UNL1        0.0202
     30 C         138.2533  143.7736  156.3954 C.3     1  UNL1        0.1051
     31 C         136.9426  143.4849  155.7255 C.3     1  UNL1        0.0202
     32 C         138.3840  145.0359  155.5955 C.1     1  UNL1        0.0758
     33 N         138.5146  146.2980  154.7958 N.1     1  UNL1       -0.1956
@<TRIPOS>BOND
     1    29    30    1
     2    30    31    1
     3    30    32    1
     4    32    33    3
     5    30    24    1
     6    24    25   ar
     7    25    26   ar
     8    26    27   ar
     9    27     1    1
    10     1     2    1
    11     2     3    1
    12     3     4    1
    13     4     5   am
    14     5     6    2
    15     9     5    1
    16     9    10    1
    17    10    11    1
    18    11    12    1
    19    12    13    1
    20    13    14    1
    21    14    15    1
    22    15    16    2
    23    15    17   am
    24    17    19    1
    25    19    22    1
    26    22    23    3
    27    19    20    1
    28    20    21    1
    29     4     7    1
    30     7     8    1
    31    27    28   ar
    32    28    24   ar
    33     8     1    1
    34    14     9    1
    35    21    19    1
    36    17    18    1
@<TRIPOS>MOLECULE
*****
 33 36 0 0 0
SMALL
GASTEIGER

@<TRIPOS>ATOM
      1 N         143.0239  139.3606  159.7955 N.pl3   1  UNL1       -0.2847
      2 C         141.9658  140.3858  160.0768 C.3     1  UNL1        0.1141
      3 C         141.9863  141.1502  161.3672 C.3     1  UNL1        0.1149
      4 N         143.0650  140.8894  162.3763 N.am    1  UNL1       -0.2760
      5 C         143.0855  141.6539  163.6668 C.2     1  UNL1        0.2257
      6 O         144.1643  141.3932  164.6759 O.2     1  UNL1       -0.2749
      7 C         144.1232  139.8643  162.0950 C.3     1  UNL1        0.1149
      8 C         144.1027  139.0998  160.8046 C.3     1  UNL1        0.1141
      9 C         142.0274  142.6791  163.9480 C.3     1  UNL1        0.0853
     10 C         142.2516  144.1125  163.5671 C.3     1  UNL1        0.0096
     11 C         141.1934  145.1377  163.8484 C.3     1  UNL1        0.0005
     12 C         139.9109  144.7296  164.5106 C.3     1  UNL1        0.0005
     13 C         139.6866  143.2962  164.8916 C.3     1  UNL1        0.0096
     14 C         140.7448  142.2710  164.6103 C.3     1  UNL1        0.0851
     15 C         140.5205  140.8376  164.9913 C.2     1  UNL1        0.2231
     16 O         141.3555  140.2079  166.0666 O.2     1  UNL1       -0.2751
     17 N         139.4613  140.0340  164.2969 N.am    1  UNL1       -0.2959
     18 H         138.9132  140.4473  163.5912 H       1  UNL1        0.1502
     19 C         139.2370  138.6006  164.6779 C.3     1  UNL1        0.1364
     20 C         138.7027  137.4024  165.4051 C.3     1  UNL1        0.0353
     21 C         138.2664  138.7800  165.8074 C.3     1  UNL1        0.0353
     22 C         140.1297  137.9233  163.6807 C.1     1  UNL1        0.0896
     23 N         141.0224  137.2459  162.6836 N.1     1  UNL1       -0.1943
     24 C         142.6213  136.8518  156.8613 C.ar    1  UNL1        0.0415
     25 C         143.3226  137.9877  156.1772 C.ar    1  UNL1        0.1040
     26 N         143.5588  139.0657  157.1931 N.ar    1  UNL1       -0.2228
     27 C         143.0034  138.5961  158.5050 C.ar    1  UNL1        0.1629
     28 S         142.4240  137.2278  158.3000 S.2     1  UNL1       -0.0549
     29 C         140.9918  136.2544  155.6414 C.3     1  UNL1        0.0202
     30 C         142.1925  135.5656  156.2194 C.3     1  UNL1        0.1051
     31 C         143.3931  134.8769  156.7975 C.3     1  UNL1        0.0202
     32 C         141.7637  134.2795  155.5775 C.1     1  UNL1        0.0758
     33 N         141.3349  132.9935  154.9357 N.1     1  UNL1       -0.1956
@<TRIPOS>BOND
     1    29    30    1
     2    30    31    1
     3    30    32    1
     4    32    33    3
     5    30    24    1
     6    24    25   ar
     7    25    26   ar
     8    26    27   ar
     9    27     1    1
    10     1     2    1
    11     2     3    1
    12     3     4    1
    13     4     5   am
    14     5     6    2
    15     9     5    1
    16     9    10    1
    17    10    11    1
    18    11    12    1
    19    12    13    1
    20    13    14    1
    21    14    15    1
    22    15    16    2
    23    15    17   am
    24    17    19    1
    25    19    22    1
    26    22    23    3
    27    19    20    1
    28    20    21    1
    29     4     7    1
    30     7     8    1
    31    27    28   ar
    32    28    24   ar
    33     8     1    1
    34    14     9    1
    35    21    19    1
    36    17    18    1
@<TRIPOS>MOLECULE
*****
 33 36 0 0 0
SMALL
GASTEIGER

@<TRIPOS>ATOM
      1 N         143.0979  140.8318  159.0355 N.pl3   1  UNL1       -0.2847
      2 C         141.8457  140.9411  159.8539 C.3     1  UNL1        0.1141
      3 C         141.7395  141.9842  160.9266 C.3     1  UNL1        0.1149
      4 N         142.8856  142.9179  161.1809 N.am    1  UNL1       -0.2760
      5 C         142.7793  143.9610  162.2537 C.2     1  UNL1        0.2257
      6 O         143.9254  144.8947  162.5079 O.2     1  UNL1       -0.2749
      7 C         144.1378  142.8086  160.3625 C.3     1  UNL1        0.1149
      8 C         144.2440  141.7655  159.2898 C.3     1  UNL1        0.1141
      9 C         141.5271  144.0703  163.0721 C.3     1  UNL1        0.0853
     10 C         140.4147  144.9715  162.6243 C.3     1  UNL1        0.0096
     11 C         139.1624  145.0808  163.4428 C.3     1  UNL1        0.0005
     12 C         139.0225  144.2889  164.7090 C.3     1  UNL1        0.0005
     13 C         140.1349  143.3877  165.1568 C.3     1  UNL1        0.0096
     14 C         141.3871  143.2784  164.3383 C.3     1  UNL1        0.0851
     15 C         142.4995  142.3772  164.7861 C.2     1  UNL1        0.2231
     16 O         143.5040  142.8661  165.7872 O.2     1  UNL1       -0.2751
     17 N         142.6074  140.9872  164.2329 N.am    1  UNL1       -0.2959
     18 H         141.9481  140.6663  163.5759 H       1  UNL1        0.1502
     19 C         143.7197  140.0859  164.6807 C.3     1  UNL1        0.1364
     20 C         144.4275  138.9502  165.3580 C.3     1  UNL1        0.0353
     21 C         142.9413  139.0974  165.4973 C.3     1  UNL1        0.0353
     22 C         144.8844  140.7614  164.0195 C.1     1  UNL1        0.0896
     23 N         146.0492  141.4369  163.3584 N.1     1  UNL1       -0.1943
     24 C         142.8580  137.7648  156.6687 C.ar    1  UNL1        0.0415
     25 C         143.8774  138.6025  155.9551 C.ar    1  UNL1        0.1040
     26 N         144.0913  139.8534  156.7549 N.ar    1  UNL1       -0.2228
     27 C         143.2042  139.7887  157.9627 C.ar    1  UNL1        0.1629
     28 S         142.4419  138.4980  157.9094 S.2     1  UNL1       -0.0549
     29 C         143.7524  135.9668  155.9853 C.3     1  UNL1        0.0202
     30 C         142.3447  136.4286  156.2202 C.3     1  UNL1        0.1051
     31 C         140.9371  136.8904  156.4551 C.3     1  UNL1        0.0202
     32 C         141.8315  135.0924  155.7718 C.1     1  UNL1        0.0758
     33 N         141.3183  133.7562  155.3233 N.1     1  UNL1       -0.1956
@<TRIPOS>BOND
     1    29    30    1
     2    30    31    1
     3    30    32    1
     4    32    33    3
     5    30    24    1
     6    24    25   ar
     7    25    26   ar
     8    26    27   ar
     9    27     1    1
    10     1     2    1
    11     2     3    1
    12     3     4    1
    13     4     5   am
    14     5     6    2
    15     9     5    1
    16     9    10    1
    17    10    11    1
    18    11    12    1
    19    12    13    1
    20    13    14    1
    21    14    15    1
    22    15    16    2
    23    15    17   am
    24    17    19    1
    25    19    22    1
    26    22    23    3
    27    19    20    1
    28    20    21    1
    29     4     7    1
    30     7     8    1
    31    27    28   ar
    32    28    24   ar
    33     8     1    1
    34    14     9    1
    35    21    19    1
    36    17    18    1
@<TRIPOS>MOLECULE
*****
 33 36 0 0 0
SMALL
GASTEIGER

@<TRIPOS>ATOM
      1 N         138.6562  140.4623  159.6746 N.pl3   1  UNL1       -0.2847
      2 C         138.3736  140.9636  161.0598 C.3     1  UNL1        0.1141
      3 C         138.8784  140.2032  162.2501 C.3     1  UNL1        0.1149
      4 N         139.6659  138.9414  162.0552 N.am    1  UNL1       -0.2760
      5 C         140.1707  138.1810  163.2455 C.2     1  UNL1        0.2257
      6 O         140.9582  136.9193  163.0506 O.2     1  UNL1       -0.2749
      7 C         139.9485  138.4402  160.6700 C.3     1  UNL1        0.1149
      8 C         139.4437  139.2006  159.4797 C.3     1  UNL1        0.1141
      9 C         139.8881  138.6823  164.6307 C.3     1  UNL1        0.0853
     10 C         138.5240  138.5047  165.2288 C.3     1  UNL1        0.0096
     11 C         138.2414  139.0060  166.6141 C.3     1  UNL1        0.0005
     12 C         139.3229  139.6848  167.4012 C.3     1  UNL1        0.0005
     13 C         140.6870  139.8624  166.8031 C.3     1  UNL1        0.0096
     14 C         140.9696  139.3612  165.4179 C.3     1  UNL1        0.0851
     15 C         142.3337  139.5388  164.8198 C.2     1  UNL1        0.2231
     16 O         143.4119  138.5341  165.0996 O.2     1  UNL1       -0.2751
     17 N         142.6196  140.7209  163.9419 N.am    1  UNL1       -0.2959
     18 H         141.9119  141.3802  163.7582 H       1  UNL1        0.1502
     19 C         143.9836  140.8985  163.3438 C.3     1  UNL1        0.1364
     20 C         145.3769  141.4154  163.1399 C.3     1  UNL1        0.0353
     21 C         144.5415  141.9372  164.2711 C.3     1  UNL1        0.0353
     22 C         143.8996  139.9215  162.2087 C.1     1  UNL1        0.0896
     23 N         143.8155  138.9445  161.0736 N.1     1  UNL1       -0.1943
     24 C         136.9425  141.8099  156.4632 C.ar    1  UNL1        0.0415
     25 C         137.8067  142.9761  156.8418 C.ar    1  UNL1        0.1040
     26 N         138.5538  142.6132  158.0908 N.ar    1  UNL1       -0.2228
     27 C         138.1514  141.2228  158.4842 C.ar    1  UNL1        0.1629
     28 S         137.1556  140.7263  157.4783 S.2     1  UNL1       -0.0549
     29 C         135.4947  140.4248  155.7664 C.3     1  UNL1        0.0202
     30 C         136.0262  141.7396  155.2777 C.3     1  UNL1        0.1051
     31 C         136.5576  143.0545  154.7890 C.3     1  UNL1        0.0202
     32 C         135.1098  141.6694  154.0922 C.1     1  UNL1        0.0758
     33 N         134.1936  141.5991  152.9067 N.1     1  UNL1       -0.1956
@<TRIPOS>BOND
     1    29    30    1
     2    30    31    1
     3    30    32    1
     4    32    33    3
     5    30    24    1
     6    24    25   ar
     7    25    26   ar
     8    26    27   ar
     9    27     1    1
    10     1     2    1
    11     2     3    1
    12     3     4    1
    13     4     5   am
    14     5     6    2
    15     9     5    1
    16     9    10    1
    17    10    11    1
    18    11    12    1
    19    12    13    1
    20    13    14    1
    21    14    15    1
    22    15    16    2
    23    15    17   am
    24    17    19    1
    25    19    22    1
    26    22    23    3
    27    19    20    1
    28    20    21    1
    29     4     7    1
    30     7     8    1
    31    27    28   ar
    32    28    24   ar
    33     8     1    1
    34    14     9    1
    35    21    19    1
    36    17    18    1
@<TRIPOS>MOLECULE
*****
 33 36 0 0 0
SMALL
GASTEIGER

@<TRIPOS>ATOM
      1 N         143.7492  141.0194  162.7919 N.pl3   1  UNL1       -0.2847
      2 C         143.1488  142.0747  163.6727 C.3     1  UNL1        0.1141
      3 C         142.8764  141.7796  165.1179 C.3     1  UNL1        0.1149
      4 N         143.2044  140.4291  165.6823 N.am    1  UNL1       -0.2760
      5 C         142.9320  140.1339  167.1276 C.2     1  UNL1        0.2257
      6 O         143.2600  138.7834  167.6921 O.2     1  UNL1       -0.2749
      7 C         143.8048  139.3737  164.8016 C.3     1  UNL1        0.1149
      8 C         144.0772  139.6689  163.3564 C.3     1  UNL1        0.1141
      9 C         142.3317  141.1893  168.0084 C.3     1  UNL1        0.0853
     10 C         143.1875  141.9059  169.0104 C.3     1  UNL1        0.0096
     11 C         142.5871  142.9612  169.8912 C.3     1  UNL1        0.0005
     12 C         141.1309  143.3000  169.7699 C.3     1  UNL1        0.0005
     13 C         140.2751  142.5834  168.7679 C.3     1  UNL1        0.0096
     14 C         140.8754  141.5280  167.8872 C.3     1  UNL1        0.0851
     15 C         140.0196  140.8114  166.8851 C.2     1  UNL1        0.2231
     16 O         139.1027  141.5899  165.9888 O.2     1  UNL1       -0.2751
     17 N         140.0806  139.3164  166.7795 N.am    1  UNL1       -0.2959
     18 H         140.6824  138.8055  167.3678 H       1  UNL1        0.1502
     19 C         139.2248  138.5998  165.7774 C.3     1  UNL1        0.1364
     20 C         138.7791  138.0008  164.4765 C.3     1  UNL1        0.0353
     21 C         140.1084  138.6895  164.5687 C.3     1  UNL1        0.0353
     22 C         138.0439  138.2613  166.6382 C.1     1  UNL1        0.0896
     23 N         136.8631  137.9227  167.4990 N.1     1  UNL1       -0.1943
     24 C         144.1759  141.0927  158.9347 C.ar    1  UNL1        0.0415
     25 C         144.7056  142.4448  159.3107 C.ar    1  UNL1        0.1040
     26 N         144.6102  142.5819  160.8013 N.ar    1  UNL1       -0.2228
     27 C         144.0216  141.3145  161.3466 C.ar    1  UNL1        0.1629
     28 S         143.7531  140.3942  160.1930 S.2     1  UNL1       -0.0549
     29 C         143.0291  139.5730  157.9990 C.3     1  UNL1        0.0202
     30 C         144.0849  140.5368  157.5445 C.3     1  UNL1        0.1051
     31 C         145.1406  141.5005  157.0900 C.3     1  UNL1        0.0202
     32 C         143.9939  139.9808  156.1543 C.1     1  UNL1        0.0758
     33 N         143.9029  139.4249  154.7641 N.1     1  UNL1       -0.1956
@<TRIPOS>BOND
     1    29    30    1
     2    30    31    1
     3    30    32    1
     4    32    33    3
     5    30    24    1
     6    24    25   ar
     7    25    26   ar
     8    26    27   ar
     9    27     1    1
    10     1     2    1
    11     2     3    1
    12     3     4    1
    13     4     5   am
    14     5     6    2
    15     9     5    1
    16     9    10    1
    17    10    11    1
    18    11    12    1
    19    12    13    1
    20    13    14    1
    21    14    15    1
    22    15    16    2
    23    15    17   am
    24    17    19    1
    25    19    22    1
    26    22    23    3
    27    19    20    1
    28    20    21    1
    29     4     7    1
    30     7     8    1
    31    27    28   ar
    32    28    24   ar
    33     8     1    1
    34    14     9    1
    35    21    19    1
    36    17    18    1
@<TRIPOS>MOLECULE
*****
 33 36 0 0 0
SMALL
GASTEIGER

@<TRIPOS>ATOM
      1 N         142.7268  138.3703  159.8697 N.pl3   1  UNL1       -0.2847
      2 C         141.3570  138.5558  160.4520 C.3     1  UNL1        0.1141
      3 C         141.1818  138.6615  161.9380 C.3     1  UNL1        0.1149
      4 N         142.3765  138.5818  162.8416 N.am    1  UNL1       -0.2760
      5 C         142.2013  138.6875  164.3276 C.2     1  UNL1        0.2257
      6 O         143.3959  138.6078  165.2312 O.2     1  UNL1       -0.2749
      7 C         143.7463  138.3963  162.2592 C.3     1  UNL1        0.1149
      8 C         143.9214  138.2905  160.7733 C.3     1  UNL1        0.1141
      9 C         140.8315  138.8730  164.9100 C.3     1  UNL1        0.0853
     10 C         139.9174  137.6942  165.0672 C.3     1  UNL1        0.0096
     11 C         138.5475  137.8797  165.6496 C.3     1  UNL1        0.0005
     12 C         138.0918  139.2441  166.0747 C.3     1  UNL1        0.0005
     13 C         139.0059  140.4230  165.9175 C.3     1  UNL1        0.0096
     14 C         140.3757  140.2375  165.3351 C.3     1  UNL1        0.0851
     15 C         141.2898  141.4163  165.1779 C.2     1  UNL1        0.2231
     16 O         142.2384  141.7822  166.2809 O.2     1  UNL1       -0.2751
     17 N         141.2554  142.2293  163.9179 N.am    1  UNL1       -0.2959
     18 H         140.6328  141.9892  163.1940 H       1  UNL1        0.1502
     19 C         142.1695  143.4082  163.7606 C.3     1  UNL1        0.1364
     20 C         142.6448  144.8307  163.7430 C.3     1  UNL1        0.0353
     21 C         141.2236  144.5193  164.1080 C.3     1  UNL1        0.0353
     22 C         143.4328  142.7064  163.3587 C.1     1  UNL1        0.0896
     23 N         144.6961  142.0047  162.9568 N.1     1  UNL1       -0.1943
     24 C         142.7904  137.4559  156.0980 C.ar    1  UNL1        0.0415
     25 C         143.5529  138.7477  156.0960 C.ar    1  UNL1        0.1040
     26 N         143.6218  139.2474  157.5086 N.ar    1  UNL1       -0.2228
     27 C         142.9020  138.2645  158.3836 C.ar    1  UNL1        0.1629
     28 S         142.3882  137.1573  157.5118 S.2     1  UNL1       -0.0549
     29 C         143.6571  135.7323  155.2159 C.3     1  UNL1        0.0202
     30 C         142.4840  136.6111  154.8970 C.3     1  UNL1        0.1051
     31 C         141.3109  137.4899  154.5781 C.3     1  UNL1        0.0202
     32 C         142.1776  135.7662  153.6960 C.1     1  UNL1        0.0758
     33 N         141.8712  134.9215  152.4950 N.1     1  UNL1       -0.1956
@<TRIPOS>BOND
     1    29    30    1
     2    30    31    1
     3    30    32    1
     4    32    33    3
     5    30    24    1
     6    24    25   ar
     7    25    26   ar
     8    26    27   ar
     9    27     1    1
    10     1     2    1
    11     2     3    1
    12     3     4    1
    13     4     5   am
    14     5     6    2
    15     9     5    1
    16     9    10    1
    17    10    11    1
    18    11    12    1
    19    12    13    1
    20    13    14    1
    21    14    15    1
    22    15    16    2
    23    15    17   am
    24    17    19    1
    25    19    22    1
    26    22    23    3
    27    19    20    1
    28    20    21    1
    29     4     7    1
    30     7     8    1
    31    27    28   ar
    32    28    24   ar
    33     8     1    1
    34    14     9    1
    35    21    19    1
    36    17    18    1
@<TRIPOS>MOLECULE
*****
 33 36 0 0 0
SMALL
GASTEIGER

@<TRIPOS>ATOM
      1 N         143.9503  141.9966  160.0901 N.pl3   1  UNL1       -0.2847
      2 C         142.4782  142.2075  160.2859 C.3     1  UNL1        0.1141
      3 C         141.9466  142.5725  161.6402 C.3     1  UNL1        0.1149
      4 N         142.8870  142.7265  162.7986 N.am    1  UNL1       -0.2760
      5 C         142.3552  143.0915  164.1529 C.2     1  UNL1        0.2257
      6 O         143.2957  143.2456  165.3113 O.2     1  UNL1       -0.2749
      7 C         144.3591  142.5156  162.6027 C.3     1  UNL1        0.1149
      8 C         144.8908  142.1506  161.2485 C.3     1  UNL1        0.1141
      9 C         140.8832  143.3024  164.3488 C.3     1  UNL1        0.0853
     10 C         140.2915  144.6697  164.1737 C.3     1  UNL1        0.0096
     11 C         138.8194  144.8806  164.3696 C.3     1  UNL1        0.0005
     12 C         137.9389  143.7242  164.7405 C.3     1  UNL1        0.0005
     13 C         138.5305  142.3570  164.9156 C.3     1  UNL1        0.0096
     14 C         140.0026  142.1461  164.7197 C.3     1  UNL1        0.0851
     15 C         140.5942  140.7789  164.8948 C.2     1  UNL1        0.2231
     16 O         141.2979  140.4240  166.1711 O.2     1  UNL1       -0.2751
     17 N         140.4821  139.7665  163.7936 N.am    1  UNL1       -0.2959
     18 H         140.0203  139.9995  162.9560 H       1  UNL1        0.1502
     19 C         141.0738  138.3993  163.9687 C.3     1  UNL1        0.1364
     20 C         141.1777  136.9406  164.3024 C.3     1  UNL1        0.0353
     21 C         139.8749  137.6610  164.4862 C.3     1  UNL1        0.0353
     22 C         142.4781  138.6627  163.5121 C.1     1  UNL1        0.0896
     23 N         143.8824  138.9261  163.0555 N.1     1  UNL1       -0.1943
     24 C         145.6528  141.7307  156.6120 C.ar    1  UNL1        0.0415
     25 C         144.9478  140.4090  156.6914 C.ar    1  UNL1        0.1040
     26 N         144.2243  140.3478  158.0040 N.ar    1  UNL1       -0.2228
     27 C         144.4821  141.6316  158.7357 C.ar    1  UNL1        0.1629
     28 S         145.3649  142.4862  157.8755 S.2     1  UNL1       -0.0549
     29 C         145.3963  141.8685  154.5108 C.3     1  UNL1        0.0202
     30 C         146.4973  142.2122  155.4697 C.3     1  UNL1        0.1051
     31 C         147.5984  142.5560  156.4286 C.3     1  UNL1        0.0202
     32 C         147.3419  142.6938  154.3274 C.1     1  UNL1        0.0758
     33 N         148.1864  143.1753  153.1851 N.1     1  UNL1       -0.1956
@<TRIPOS>BOND
     1    29    30    1
     2    30    31    1
     3    30    32    1
     4    32    33    3
     5    30    24    1
     6    24    25   ar
     7    25    26   ar
     8    26    27   ar
     9    27     1    1
    10     1     2    1
    11     2     3    1
    12     3     4    1
    13     4     5   am
    14     5     6    2
    15     9     5    1
    16     9    10    1
    17    10    11    1
    18    11    12    1
    19    12    13    1
    20    13    14    1
    21    14    15    1
    22    15    16    2
    23    15    17   am
    24    17    19    1
    25    19    22    1
    26    22    23    3
    27    19    20    1
    28    20    21    1
    29     4     7    1
    30     7     8    1
    31    27    28   ar
    32    28    24   ar
    33     8     1    1
    34    14     9    1
    35    21    19    1
    36    17    18    1
@<TRIPOS>MOLECULE
*****
 33 36 0 0 0
SMALL
GASTEIGER

@<TRIPOS>ATOM
      1 N         139.5368  140.4268  164.7566 N.pl3   1  UNL1       -0.2847
      2 C         140.6283  140.4049  163.7280 C.3     1  UNL1        0.1141
      3 C         140.2898  140.2131  162.2793 C.3     1  UNL1        0.1149
      4 N         138.8598  140.0431  161.8594 N.am    1  UNL1       -0.2760
      5 C         138.5214  139.8513  160.4106 C.2     1  UNL1        0.2257
      6 O         137.0914  139.6813  159.9907 O.2     1  UNL1       -0.2749
      7 C         137.7684  140.0649  162.8880 C.3     1  UNL1        0.1149
      8 C         138.1069  140.2568  164.3367 C.3     1  UNL1        0.1141
      9 C         139.6128  139.8294  159.3820 C.3     1  UNL1        0.0853
     10 C         140.1063  138.5208  158.8396 C.3     1  UNL1        0.0096
     11 C         141.1978  138.4991  157.8109 C.3     1  UNL1        0.0005
     12 C         141.7958  139.7858  157.3246 C.3     1  UNL1        0.0005
     13 C         141.3024  141.0944  157.8669 C.3     1  UNL1        0.0096
     14 C         140.2109  141.1162  158.8956 C.3     1  UNL1        0.0851
     15 C         139.7175  142.4248  159.4379 C.2     1  UNL1        0.2231
     16 O         138.4382  143.0154  158.9233 O.2     1  UNL1       -0.2751
     17 N         140.5033  143.1428  160.4948 N.am    1  UNL1       -0.2959
     18 H         141.3429  142.7552  160.8325 H       1  UNL1        0.1502
     19 C         140.0098  144.4514  161.0371 C.3     1  UNL1        0.1364
     20 C         139.8821  145.9307  161.2500 C.3     1  UNL1        0.0353
     21 C         140.8913  145.3975  160.2769 C.3     1  UNL1        0.0353
     22 C         138.9570  143.9599  161.9857 C.1     1  UNL1        0.0896
     23 N         137.9042  143.4683  162.9343 N.1     1  UNL1       -0.1943
     24 C         140.8650  141.4697  168.2515 C.ar    1  UNL1        0.0415
     25 C         139.9272  140.3577  168.6178 C.ar    1  UNL1        0.1040
     26 N         139.3155  139.8317  167.3532 N.ar    1  UNL1       -0.2228
     27 C         139.8753  140.6186  166.2053 C.ar    1  UNL1        0.1629
     28 S         140.8329  141.6309  166.7605 S.2     1  UNL1       -0.0549
     29 C         140.5274  143.1995  169.4321 C.3     1  UNL1        0.0202
     30 C         141.6900  142.2785  169.2082 C.3     1  UNL1        0.1051
     31 C         142.8526  141.3575  168.9842 C.3     1  UNL1        0.0202
     32 C         142.5150  143.0872  170.1649 C.1     1  UNL1        0.0758
     33 N         143.3399  143.8960  171.1215 N.1     1  UNL1       -0.1956
@<TRIPOS>BOND
     1    29    30    1
     2    30    31    1
     3    30    32    1
     4    32    33    3
     5    30    24    1
     6    24    25   ar
     7    25    26   ar
     8    26    27   ar
     9    27     1    1
    10     1     2    1
    11     2     3    1
    12     3     4    1
    13     4     5   am
    14     5     6    2
    15     9     5    1
    16     9    10    1
    17    10    11    1
    18    11    12    1
    19    12    13    1
    20    13    14    1
    21    14    15    1
    22    15    16    2
    23    15    17   am
    24    17    19    1
    25    19    22    1
    26    22    23    3
    27    19    20    1
    28    20    21    1
    29     4     7    1
    30     7     8    1
    31    27    28   ar
    32    28    24   ar
    33     8     1    1
    34    14     9    1
    35    21    19    1
    36    17    18    1
@<TRIPOS>MOLECULE
*****
 33 36 0 0 0
SMALL
GASTEIGER

@<TRIPOS>ATOM
      1 N         140.0925  139.0073  159.9461 N.pl3   1  UNL1       -0.2847
      2 C         140.5313  138.6683  161.3399 C.3     1  UNL1        0.1141
      3 C         139.8524  139.3056  162.5158 C.3     1  UNL1        0.1149
      4 N         138.7346  140.2819  162.2980 N.am    1  UNL1       -0.2760
      5 C         138.0556  140.9192  163.4740 C.2     1  UNL1        0.2257
      6 O         136.9379  141.8955  163.2562 O.2     1  UNL1       -0.2749
      7 C         138.2958  140.6209  160.9043 C.3     1  UNL1        0.1149
      8 C         138.9748  139.9836  159.7284 C.3     1  UNL1        0.1141
      9 C         138.4944  140.5801  164.8677 C.3     1  UNL1        0.0853
     10 C         137.9870  139.3345  165.5316 C.3     1  UNL1        0.0096
     11 C         138.4259  138.9955  166.9254 C.3     1  UNL1        0.0005
     12 C         139.3721  139.9021  167.6552 C.3     1  UNL1        0.0005
     13 C         139.8795  141.1478  166.9913 C.3     1  UNL1        0.0096
     14 C         139.4407  141.4868  165.5976 C.3     1  UNL1        0.0851
     15 C         139.9481  142.7325  164.9336 C.2     1  UNL1        0.2231
     16 O         139.3043  144.0549  165.2283 O.2     1  UNL1       -0.2751
     17 N         141.0992  142.6558  163.9750 N.am    1  UNL1       -0.2959
     18 H         141.5218  141.7879  163.7816 H       1  UNL1        0.1502
     19 C         141.6066  143.9015  163.3111 C.3     1  UNL1        0.1364
     20 C         142.4825  145.0812  163.0094 C.3     1  UNL1        0.0353
     21 C         142.8439  144.1443  164.1236 C.3     1  UNL1        0.0353
     22 C         140.5456  144.0914  162.2680 C.1     1  UNL1        0.0896
     23 N         139.4846  144.2814  161.2248 N.1     1  UNL1       -0.1943
     24 C         141.1529  137.3119  156.6194 C.ar    1  UNL1        0.0415
     25 C         142.4798  137.4668  157.3016 C.ar    1  UNL1        0.1040
     26 N         142.2441  138.1207  158.6308 N.ar    1  UNL1       -0.2228
     27 C         140.7715  138.3700  158.7701 C.ar    1  UNL1        0.1629
     28 S         140.0971  137.8701  157.5270 S.2     1  UNL1       -0.0549
     29 C         141.5828  135.4380  155.7229 C.3     1  UNL1        0.0202
     30 C         140.9223  136.7053  155.2671 C.3     1  UNL1        0.1051
     31 C         140.2618  137.9726  154.8113 C.3     1  UNL1        0.0202
     32 C         140.6916  136.0987  153.9147 C.1     1  UNL1        0.0758
     33 N         140.4610  135.4921  152.5625 N.1     1  UNL1       -0.1956
@<TRIPOS>BOND
     1    29    30    1
     2    30    31    1
     3    30    32    1
     4    32    33    3
     5    30    24    1
     6    24    25   ar
     7    25    26   ar
     8    26    27   ar
     9    27     1    1
    10     1     2    1
    11     2     3    1
    12     3     4    1
    13     4     5   am
    14     5     6    2
    15     9     5    1
    16     9    10    1
    17    10    11    1
    18    11    12    1
    19    12    13    1
    20    13    14    1
    21    14    15    1
    22    15    16    2
    23    15    17   am
    24    17    19    1
    25    19    22    1
    26    22    23    3
    27    19    20    1
    28    20    21    1
    29     4     7    1
    30     7     8    1
    31    27    28   ar
    32    28    24   ar
    33     8     1    1
    34    14     9    1
    35    21    19    1
    36    17    18    1
