@<TRIPOS>MOLECULE
*****
 25 27 0 0 0
SMALL
GASTEIGER

@<TRIPOS>ATOM
      1 C         139.2252  140.6084  169.6348 C.ar    1  UNL1       -0.0001
      2 C         139.7078  141.9998  169.9197 C.ar    1  UNL1       -0.0003
      3 C         140.5131  142.7393  168.8928 C.ar    1  UNL1       -0.0029
      4 C         140.8359  142.0875  167.5810 C.ar    1  UNL1       -0.0047
      5 C         140.3533  140.6961  167.2961 C.ar    1  UNL1       -0.0047
      6 C         139.5480  139.9566  168.3230 C.ar    1  UNL1       -0.0029
      7 C         140.8236  140.3143  165.9238 C.3     1  UNL1        0.1205
      8 N         141.5968  141.4697  165.3606 N.am    1  UNL1       -0.2678
      9 C         142.2481  141.5203  164.0103 C.2     1  UNL1        0.2510
     10 O         142.9917  142.7506  163.5820 O.2     1  UNL1       -0.2698
     11 C         141.6044  142.5656  166.3848 C.3     1  UNL1        0.1205
     12 C         142.1559  140.3407  163.0884 C.ar    1  UNL1        0.0727
     13 C         143.2231  139.2868  163.1098 C.ar    1  UNL1        0.0077
     14 C         143.1309  138.1072  162.1879 C.ar    1  UNL1        0.0208
     15 C         141.9713  137.9814  161.2446 C.ar    1  UNL1        0.0989
     16 N         140.9042  139.0352  161.2233 N.ar    1  UNL1       -0.2422
     17 C         140.9964  140.2149  162.1451 C.ar    1  UNL1        0.1034
     18 C         137.1784  139.1328  170.2535 C.2     1  UNL1        0.0598
     19 C         138.4199  139.8689  170.6617 C.2     1  UNL1        0.0047
     20 O         136.4933  136.9026  171.3968 O.2     1  UNL1       -0.2681
     21 C         136.3731  138.3932  171.2804 C.2     1  UNL1        0.2679
     22 N         135.4475  139.1444  172.1910 N.am    1  UNL1       -0.1934
     23 O         134.6422  138.4048  173.2180 O.3     1  UNL1       -0.2949
     24 H         135.3686  140.1227  172.1147 H       1  UNL1        0.1825
     25 H         134.8367  137.4563  173.1597 H       1  UNL1        0.2414
@<TRIPOS>BOND
     1    20    21    2
     2    21    18    1
     3    18    19    2
     4    19     1    1
     5     1     2   ar
     6     2     3   ar
     7     3     4   ar
     8     4     5   ar
     9     5     6   ar
    10     5     7    1
    11     7     8    1
    12     8     9   am
    13     9    10    2
    14     9    12    1
    15    12    13   ar
    16    13    14   ar
    17    14    15   ar
    18    15    16   ar
    19    16    17   ar
    20     8    11    1
    21    21    22   am
    22    22    23    1
    23     6     1   ar
    24    17    12   ar
    25    11     4    1
    26    22    24    1
    27    23    25    1
@<TRIPOS>MOLECULE
*****
 25 27 0 0 0
SMALL
GASTEIGER

@<TRIPOS>ATOM
      1 C         139.8792  140.2768  167.8449 C.ar    1  UNL1       -0.0001
      2 C         138.5952  139.5015  167.8362 C.ar    1  UNL1       -0.0003
      3 C         138.1357  138.8256  166.5784 C.ar    1  UNL1       -0.0029
      4 C         138.9602  138.9251  165.3293 C.ar    1  UNL1       -0.0047
      5 C         140.2442  139.7005  165.3380 C.ar    1  UNL1       -0.0047
      6 C         140.7037  140.3763  166.5958 C.ar    1  UNL1       -0.0029
      7 C         140.8414  139.6237  163.9641 C.3     1  UNL1        0.1205
      8 N         139.9265  138.8008  163.1064 N.am    1  UNL1       -0.2678
      9 C         140.1372  138.4680  161.6589 C.2     1  UNL1        0.2510
     10 O         139.1305  137.6302  160.9278 O.2     1  UNL1       -0.2698
     11 C         138.7638  138.3691  163.9501 C.3     1  UNL1        0.1205
     12 C         141.3545  138.9732  160.9428 C.ar    1  UNL1        0.0727
     13 C         141.3386  140.3289  160.3011 C.ar    1  UNL1        0.0077
     14 C         142.5560  140.8341  159.5850 C.ar    1  UNL1        0.0208
     15 C         143.7893  139.9834  159.5105 C.ar    1  UNL1        0.0989
     16 N         143.8051  138.6277  160.1521 N.ar    1  UNL1       -0.2422
     17 C         142.5878  138.1226  160.8683 C.ar    1  UNL1        0.1034
     18 C         141.5669  141.8136  169.0858 C.2     1  UNL1        0.0598
     19 C         140.3387  140.9527  169.1027 C.2     1  UNL1        0.0047
     20 O         141.3637  142.1713  171.6511 O.2     1  UNL1       -0.2681
     21 C         142.0265  142.4894  170.3436 C.2     1  UNL1        0.2679
     22 N         143.1488  143.4834  170.2939 N.am    1  UNL1       -0.1934
     23 O         143.6083  144.1593  171.5517 O.3     1  UNL1       -0.2949
     24 H         143.5838  143.6922  169.4358 H       1  UNL1        0.1825
     25 H         143.0790  143.8431  172.3006 H       1  UNL1        0.2414
@<TRIPOS>BOND
     1    20    21    2
     2    21    18    1
     3    18    19    2
     4    19     1    1
     5     1     2   ar
     6     2     3   ar
     7     3     4   ar
     8     4     5   ar
     9     5     6   ar
    10     5     7    1
    11     7     8    1
    12     8     9   am
    13     9    10    2
    14     9    12    1
    15    12    13   ar
    16    13    14   ar
    17    14    15   ar
    18    15    16   ar
    19    16    17   ar
    20     8    11    1
    21    21    22   am
    22    22    23    1
    23     6     1   ar
    24    17    12   ar
    25    11     4    1
    26    22    24    1
    27    23    25    1
@<TRIPOS>MOLECULE
*****
 25 27 0 0 0
SMALL
GASTEIGER

@<TRIPOS>ATOM
      1 C         143.1027  142.2931  169.8435 C.ar    1  UNL1       -0.0001
      2 C         142.0682  142.1935  170.9250 C.ar    1  UNL1       -0.0003
      3 C         140.7707  141.4894  170.6592 C.ar    1  UNL1       -0.0029
      4 C         140.5077  140.8849  169.3119 C.ar    1  UNL1       -0.0047
      5 C         141.5422  140.9845  168.2304 C.ar    1  UNL1       -0.0047
      6 C         142.8397  141.6886  168.4961 C.ar    1  UNL1       -0.0029
      7 C         141.0050  140.2966  167.0103 C.3     1  UNL1        0.1205
      8 N         139.6385  139.7720  167.3379 N.am    1  UNL1       -0.2678
      9 C         138.7375  139.0164  166.4066 C.2     1  UNL1        0.2510
     10 O         137.3911  138.5524  166.8776 O.2     1  UNL1       -0.2698
     11 C         139.3311  140.1355  168.7604 C.3     1  UNL1        0.1205
     12 C         139.1829  138.7249  165.0042 C.ar    1  UNL1        0.0727
     13 C         140.1201  137.5846  164.7367 C.ar    1  UNL1        0.0077
     14 C         140.5656  137.2931  163.3344 C.ar    1  UNL1        0.0208
     15 C         140.0738  138.1418  162.1995 C.ar    1  UNL1        0.0989
     16 N         139.1366  139.2820  162.4670 N.ar    1  UNL1       -0.2422
     17 C         138.6911  139.5735  163.8694 C.ar    1  UNL1        0.1034
     18 C         144.4405  144.1665  171.0479 C.2     1  UNL1        0.0598
     19 C         144.4003  142.9972  170.1092 C.2     1  UNL1        0.0047
     20 O         147.0378  144.1505  171.1088 O.2     1  UNL1       -0.2681
     21 C         145.7380  144.8706  171.3137 C.2     1  UNL1        0.2679
     22 N         145.7358  146.2949  171.7844 N.am    1  UNL1       -0.1934
     23 O         147.0333  146.9990  172.0501 O.3     1  UNL1       -0.2949
     24 H         144.8827  146.7675  171.9188 H       1  UNL1        0.1825
     25 H         147.7713  146.3959  171.8696 H       1  UNL1        0.2414
@<TRIPOS>BOND
     1    20    21    2
     2    21    18    1
     3    18    19    2
     4    19     1    1
     5     1     2   ar
     6     2     3   ar
     7     3     4   ar
     8     4     5   ar
     9     5     6   ar
    10     5     7    1
    11     7     8    1
    12     8     9   am
    13     9    10    2
    14     9    12    1
    15    12    13   ar
    16    13    14   ar
    17    14    15   ar
    18    15    16   ar
    19    16    17   ar
    20     8    11    1
    21    21    22   am
    22    22    23    1
    23     6     1   ar
    24    17    12   ar
    25    11     4    1
    26    22    24    1
    27    23    25    1
@<TRIPOS>MOLECULE
*****
 25 27 0 0 0
SMALL
GASTEIGER

@<TRIPOS>ATOM
      1 C         142.1536  139.5190  169.5787 C.ar    1  UNL1       -0.0001
      2 C         140.6974  139.7568  169.8490 C.ar    1  UNL1       -0.0003
      3 C         139.8533  140.4708  168.8353 C.ar    1  UNL1       -0.0029
      4 C         140.4652  140.9470  167.5513 C.ar    1  UNL1       -0.0047
      5 C         141.9213  140.7093  167.2810 C.ar    1  UNL1       -0.0047
      6 C         142.7655  139.9953  168.2947 C.ar    1  UNL1       -0.0029
      7 C         142.2439  141.2893  165.9358 C.3     1  UNL1        0.1205
      8 N         140.9870  141.8856  165.3748 N.am    1  UNL1       -0.2678
      9 C         140.8529  142.5728  164.0481 C.2     1  UNL1        0.2510
     10 O         139.5248  143.1223  163.6190 O.2     1  UNL1       -0.2698
     11 C         139.8878  141.6740  166.3732 C.3     1  UNL1        0.1205
     12 C         142.0470  142.7105  163.1507 C.ar    1  UNL1        0.0727
     13 C         142.4964  141.5475  162.3167 C.ar    1  UNL1        0.0077
     14 C         143.6904  141.6852  161.4192 C.ar    1  UNL1        0.0208
     15 C         144.4350  142.9858  161.3559 C.ar    1  UNL1        0.0989
     16 N         143.9856  144.1487  162.1900 N.ar    1  UNL1       -0.2422
     17 C         142.7916  144.0110  163.0874 C.ar    1  UNL1        0.1034
     18 C         143.4813  137.4119  170.3183 C.2     1  UNL1        0.0598
     19 C         142.9977  138.8050  170.5924 C.2     1  UNL1        0.0047
     20 O         145.6524  137.2674  171.7378 O.2     1  UNL1       -0.2681
     21 C         144.3255  136.6979  171.3319 C.2     1  UNL1        0.2679
     22 N         143.8426  135.4143  171.9398 N.am    1  UNL1       -0.1934
     23 O         144.6868  134.7003  172.9535 O.3     1  UNL1       -0.2949
     24 H         142.9717  135.0405  171.6734 H       1  UNL1        0.1825
     25 H         145.5058  135.1987  173.1009 H       1  UNL1        0.2414
@<TRIPOS>BOND
     1    20    21    2
     2    21    18    1
     3    18    19    2
     4    19     1    1
     5     1     2   ar
     6     2     3   ar
     7     3     4   ar
     8     4     5   ar
     9     5     6   ar
    10     5     7    1
    11     7     8    1
    12     8     9   am
    13     9    10    2
    14     9    12    1
    15    12    13   ar
    16    13    14   ar
    17    14    15   ar
    18    15    16   ar
    19    16    17   ar
    20     8    11    1
    21    21    22   am
    22    22    23    1
    23     6     1   ar
    24    17    12   ar
    25    11     4    1
    26    22    24    1
    27    23    25    1
@<TRIPOS>MOLECULE
*****
 25 27 0 0 0
SMALL
GASTEIGER

@<TRIPOS>ATOM
      1 C         140.3836  141.4033  167.7931 C.ar    1  UNL1       -0.0001
      2 C         139.5657  140.2101  168.1895 C.ar    1  UNL1       -0.0003
      3 C         138.8238  139.4290  167.1457 C.ar    1  UNL1       -0.0029
      4 C         138.8998  139.8412  165.7055 C.ar    1  UNL1       -0.0047
      5 C         139.7177  141.0344  165.3090 C.ar    1  UNL1       -0.0047
      6 C         140.4596  141.8155  166.3528 C.ar    1  UNL1       -0.0029
      7 C         139.6049  141.2006  163.8225 C.3     1  UNL1        0.1205
      8 N         138.7172  140.1101  163.3003 N.am    1  UNL1       -0.2678
      9 C         138.3327  139.8970  161.8660 C.2     1  UNL1        0.2510
     10 O         137.4322  138.7572  161.4923 O.2     1  UNL1       -0.2698
     11 C         138.2814  139.2699  164.4640 C.3     1  UNL1        0.1205
     12 C         138.8488  140.8239  160.8056 C.ar    1  UNL1        0.0727
     13 C         140.0125  140.4137  159.9525 C.ar    1  UNL1        0.0077
     14 C         140.5286  141.3406  158.8921 C.ar    1  UNL1        0.0208
     15 C         139.8811  142.6777  158.6848 C.ar    1  UNL1        0.0989
     16 N         138.7175  143.0878  159.5378 N.ar    1  UNL1       -0.2422
     17 C         138.2014  142.1610  160.5983 C.ar    1  UNL1        0.1034
     18 C         142.6145  142.0493  168.9574 C.2     1  UNL1        0.0598
     19 C         141.1255  142.1844  168.8369 C.2     1  UNL1        0.0047
     20 O         142.6014  143.5280  171.0936 O.2     1  UNL1       -0.2681
     21 C         143.3564  142.8304  170.0012 C.2     1  UNL1        0.2679
     22 N         144.8533  142.9139  169.9526 N.am    1  UNL1       -0.1934
     23 O         145.5952  143.6950  170.9964 O.3     1  UNL1       -0.2949
     24 H         145.3488  142.4560  169.2356 H       1  UNL1        0.1825
     25 H         144.9624  144.0795  171.6230 H       1  UNL1        0.2414
@<TRIPOS>BOND
     1    20    21    2
     2    21    18    1
     3    18    19    2
     4    19     1    1
     5     1     2   ar
     6     2     3   ar
     7     3     4   ar
     8     4     5   ar
     9     5     6   ar
    10     5     7    1
    11     7     8    1
    12     8     9   am
    13     9    10    2
    14     9    12    1
    15    12    13   ar
    16    13    14   ar
    17    14    15   ar
    18    15    16   ar
    19    16    17   ar
    20     8    11    1
    21    21    22   am
    22    22    23    1
    23     6     1   ar
    24    17    12   ar
    25    11     4    1
    26    22    24    1
    27    23    25    1
@<TRIPOS>MOLECULE
*****
 25 27 0 0 0
SMALL
GASTEIGER

@<TRIPOS>ATOM
      1 C         139.0887  139.4811  166.4387 C.ar    1  UNL1       -0.0001
      2 C         138.7844  138.1047  165.9261 C.ar    1  UNL1       -0.0003
      3 C         138.9000  137.8076  164.4604 C.ar    1  UNL1       -0.0029
      4 C         139.3200  138.8870  163.5072 C.ar    1  UNL1       -0.0047
      5 C         139.6244  140.2634  164.0198 C.ar    1  UNL1       -0.0047
      6 C         139.5088  140.5605  165.4855 C.ar    1  UNL1       -0.0029
      7 C         140.0126  141.1184  162.8500 C.3     1  UNL1        0.1205
      8 N         139.9481  140.2703  161.6145 N.am    1  UNL1       -0.2678
      9 C         140.2574  140.7219  160.2178 C.2     1  UNL1        0.2510
     10 O         140.1484  139.7557  159.0757 O.2     1  UNL1       -0.2698
     11 C         139.5201  138.8912  162.0207 C.3     1  UNL1        0.1205
     12 C         140.6756  142.1398  159.9635 C.ar    1  UNL1        0.0727
     13 C         139.6475  143.1728  159.6086 C.ar    1  UNL1        0.0077
     14 C         140.0658  144.5907  159.3542 C.ar    1  UNL1        0.0208
     15 C         141.5121  144.9755  159.4547 C.ar    1  UNL1        0.0989
     16 N         142.5402  143.9425  159.8095 N.ar    1  UNL1       -0.2422
     17 C         142.1219  142.5246  160.0639 C.ar    1  UNL1        0.1034
     18 C         140.1798  140.2215  168.6773 C.2     1  UNL1        0.0598
     19 C         138.9731  139.7782  167.9044 C.2     1  UNL1        0.0047
     20 O         139.4207  139.5226  171.0617 O.2     1  UNL1       -0.2681
     21 C         140.0642  140.5186  170.1430 C.2     1  UNL1        0.2679
     22 N         140.5920  141.8118  170.6901 N.am    1  UNL1       -0.1934
     23 O         140.4764  142.1088  172.1559 O.3     1  UNL1       -0.2949
     24 H         141.0143  142.4655  170.0872 H       1  UNL1        0.1825
     25 H         140.0392  141.3671  172.6026 H       1  UNL1        0.2414
@<TRIPOS>BOND
     1    20    21    2
     2    21    18    1
     3    18    19    2
     4    19     1    1
     5     1     2   ar
     6     2     3   ar
     7     3     4   ar
     8     4     5   ar
     9     5     6   ar
    10     5     7    1
    11     7     8    1
    12     8     9   am
    13     9    10    2
    14     9    12    1
    15    12    13   ar
    16    13    14   ar
    17    14    15   ar
    18    15    16   ar
    19    16    17   ar
    20     8    11    1
    21    21    22   am
    22    22    23    1
    23     6     1   ar
    24    17    12   ar
    25    11     4    1
    26    22    24    1
    27    23    25    1
@<TRIPOS>MOLECULE
*****
 25 27 0 0 0
SMALL
GASTEIGER

@<TRIPOS>ATOM
      1 C         142.4183  140.1837  166.9894 C.ar    1  UNL1       -0.0001
      2 C         143.2039  138.9077  166.9221 C.ar    1  UNL1       -0.0003
      3 C         143.7089  138.4066  165.6015 C.ar    1  UNL1       -0.0029
      4 C         143.4285  139.1816  164.3483 C.ar    1  UNL1       -0.0047
      5 C         142.6429  140.4577  164.4156 C.ar    1  UNL1       -0.0047
      6 C         142.1378  140.9587  165.7362 C.ar    1  UNL1       -0.0029
      7 C         142.5234  141.0025  163.0231 C.3     1  UNL1        0.1205
      8 N         143.2352  140.0631  162.0952 N.am    1  UNL1       -0.2678
      9 C         143.3649  140.2213  160.6092 C.2     1  UNL1        0.2510
     10 O         144.1100  139.1953  159.8079 O.2     1  UNL1       -0.2698
     11 C         143.7945  138.9378  162.9142 C.3     1  UNL1        0.1205
     12 C         142.7494  141.4055  159.9245 C.ar    1  UNL1        0.0727
     13 C         141.3408  141.3285  159.4145 C.ar    1  UNL1        0.0077
     14 C         140.7253  142.5127  158.7298 C.ar    1  UNL1        0.0208
     15 C         141.5184  143.7739  158.5551 C.ar    1  UNL1        0.0989
     16 N         142.9269  143.8509  159.0650 N.ar    1  UNL1       -0.2422
     17 C         143.5424  142.6666  159.7497 C.ar    1  UNL1        0.1034
     18 C         140.8818  139.9000  169.0651 C.2     1  UNL1        0.0598
     19 C         141.9132  140.6847  168.3100 C.2     1  UNL1        0.0047
     20 O         139.3740  139.5971  171.1591 O.2     1  UNL1       -0.2681
     21 C         140.3767  140.4011  170.3856 C.2     1  UNL1        0.2679
     22 N         140.8744  141.7061  170.9328 N.am    1  UNL1       -0.1934
     23 O         140.3693  142.2071  172.2533 O.3     1  UNL1       -0.2949
     24 H         141.5325  142.2337  170.4251 H       1  UNL1        0.1825
     25 H         139.7323  141.5728  172.6176 H       1  UNL1        0.2414
@<TRIPOS>BOND
     1    20    21    2
     2    21    18    1
     3    18    19    2
     4    19     1    1
     5     1     2   ar
     6     2     3   ar
     7     3     4   ar
     8     4     5   ar
     9     5     6   ar
    10     5     7    1
    11     7     8    1
    12     8     9   am
    13     9    10    2
    14     9    12    1
    15    12    13   ar
    16    13    14   ar
    17    14    15   ar
    18    15    16   ar
    19    16    17   ar
    20     8    11    1
    21    21    22   am
    22    22    23    1
    23     6     1   ar
    24    17    12   ar
    25    11     4    1
    26    22    24    1
    27    23    25    1
@<TRIPOS>MOLECULE
*****
 25 27 0 0 0
SMALL
GASTEIGER

@<TRIPOS>ATOM
      1 C         142.4230  141.7365  167.0974 C.ar    1  UNL1       -0.0001
      2 C         143.6691  142.5682  167.0238 C.ar    1  UNL1       -0.0003
      3 C         144.0803  143.1895  165.7219 C.ar    1  UNL1       -0.0029
      4 C         143.2455  142.9791  164.4936 C.ar    1  UNL1       -0.0047
      5 C         141.9994  142.1473  164.5672 C.ar    1  UNL1       -0.0047
      6 C         141.5882  141.5261  165.8691 C.ar    1  UNL1       -0.0029
      7 C         141.3816  142.1159  163.2007 C.3     1  UNL1        0.1205
      8 N         142.2460  142.9282  162.2825 N.am    1  UNL1       -0.2678
      9 C         142.0014  143.1654  160.8216 C.2     1  UNL1        0.2510
     10 O         142.9583  144.0043  160.0276 O.2     1  UNL1       -0.2698
     11 C         143.3979  143.4616  163.0816 C.3     1  UNL1        0.1205
     12 C         140.8000  142.5637  160.1550 C.ar    1  UNL1        0.0727
     13 C         140.8422  141.1439  159.6727 C.ar    1  UNL1        0.0077
     14 C         139.6408  140.5422  159.0061 C.ar    1  UNL1        0.0208
     15 C         138.3970  141.3603  158.8217 C.ar    1  UNL1        0.0989
     16 N         138.3548  142.7800  159.3039 N.ar    1  UNL1       -0.2422
     17 C         139.5563  143.3817  159.9706 C.ar    1  UNL1        0.1034
     18 C         140.8855  141.7100  169.1915 C.2     1  UNL1        0.0598
     19 C         142.0118  141.1152  168.3993 C.2     1  UNL1        0.0047
     20 O         140.5561  141.8836  171.7627 O.2     1  UNL1       -0.2681
     21 C         140.4742  141.0887  170.4934 C.2     1  UNL1        0.2679
     22 N         139.9811  139.6724  170.5258 N.am    1  UNL1       -0.1934
     23 O         139.5698  139.0511  171.8277 O.3     1  UNL1       -0.2949
     24 H         139.9273  139.1507  169.6927 H       1  UNL1        0.1825
     25 H         139.6836  139.6955  172.5437 H       1  UNL1        0.2414
@<TRIPOS>BOND
     1    20    21    2
     2    21    18    1
     3    18    19    2
     4    19     1    1
     5     1     2   ar
     6     2     3   ar
     7     3     4   ar
     8     4     5   ar
     9     5     6   ar
    10     5     7    1
    11     7     8    1
    12     8     9   am
    13     9    10    2
    14     9    12    1
    15    12    13   ar
    16    13    14   ar
    17    14    15   ar
    18    15    16   ar
    19    16    17   ar
    20     8    11    1
    21    21    22   am
    22    22    23    1
    23     6     1   ar
    24    17    12   ar
    25    11     4    1
    26    22    24    1
    27    23    25    1
@<TRIPOS>MOLECULE
*****
 25 27 0 0 0
SMALL
GASTEIGER

@<TRIPOS>ATOM
      1 C         142.4950  141.0619  167.2996 C.ar    1  UNL1       -0.0001
      2 C         143.2093  142.3794  167.3620 C.ar    1  UNL1       -0.0003
      3 C         143.8089  142.9671  166.1190 C.ar    1  UNL1       -0.0029
      4 C         143.6943  142.2372  164.8136 C.ar    1  UNL1       -0.0047
      5 C         142.9801  140.9197  164.7512 C.ar    1  UNL1       -0.0047
      6 C         142.3805  140.3320  165.9942 C.ar    1  UNL1       -0.0029
      7 C         143.0257  140.4344  163.3325 C.3     1  UNL1        0.1205
      8 N         143.7682  141.4521  162.5182 N.am    1  UNL1       -0.2678
      9 C         144.0482  141.3700  161.0468 C.2     1  UNL1        0.2510
     10 O         144.8068  142.4700  160.3653 O.2     1  UNL1       -0.2698
     11 C         144.1814  142.5663  163.4336 C.3     1  UNL1        0.1205
     12 C         143.5697  140.1879  160.2571 C.ar    1  UNL1        0.0727
     13 C         142.8329  140.3963  158.9672 C.ar    1  UNL1        0.0077
     14 C         142.3544  139.2142  158.1774 C.ar    1  UNL1        0.0208
     15 C         142.6127  137.8238  158.6776 C.ar    1  UNL1        0.0989
     16 N         143.3494  137.6155  159.9675 N.ar    1  UNL1       -0.2422
     17 C         143.8279  138.7976  160.7572 C.ar    1  UNL1        0.1034
     18 C         141.1214  141.3459  169.4865 C.2     1  UNL1        0.0598
     19 C         141.8954  140.4742  168.5426 C.2     1  UNL1        0.0047
     20 O         140.4550  141.5726  171.9873 O.2     1  UNL1       -0.2681
     21 C         140.5218  140.7582  170.7294 C.2     1  UNL1        0.2679
     22 N         139.9889  139.3561  170.7145 N.am    1  UNL1       -0.1934
     23 O         139.3893  138.7684  171.9575 O.3     1  UNL1       -0.2949
     24 H         140.0327  138.8216  169.8889 H       1  UNL1        0.1825
     25 H         139.4240  139.4219  172.6735 H       1  UNL1        0.2414
@<TRIPOS>BOND
     1    20    21    2
     2    21    18    1
     3    18    19    2
     4    19     1    1
     5     1     2   ar
     6     2     3   ar
     7     3     4   ar
     8     4     5   ar
     9     5     6   ar
    10     5     7    1
    11     7     8    1
    12     8     9   am
    13     9    10    2
    14     9    12    1
    15    12    13   ar
    16    13    14   ar
    17    14    15   ar
    18    15    16   ar
    19    16    17   ar
    20     8    11    1
    21    21    22   am
    22    22    23    1
    23     6     1   ar
    24    17    12   ar
    25    11     4    1
    26    22    24    1
    27    23    25    1
