@<TRIPOS>MOLECULE
*****
 36 39 0 0 0
SMALL
GASTEIGER

@<TRIPOS>ATOM
      1 C         139.4881  138.2427  162.7248 C.ar    1  UNL1        0.1532
      2 C         139.4506  138.0522  161.2374 C.ar    1  UNL1        0.0573
      3 C         139.1172  139.2080  160.3414 C.ar    1  UNL1        0.0856
      4 N         139.0797  139.0175  158.8540 N.ar    1  UNL1       -0.2435
      5 C         138.7463  140.1734  157.9580 C.ar    1  UNL1        0.1045
      6 C         138.4504  141.5198  158.5494 C.ar    1  UNL1        0.0856
      7 C         138.4879  141.7103  160.0368 C.ar    1  UNL1        0.0557
      8 C         138.8213  140.5544  160.9328 C.ar    1  UNL1        0.0327
      9 C         138.8588  140.7449  162.4201 C.ar    1  UNL1        0.0203
     10 C         139.1922  139.5890  163.3161 C.ar    1  UNL1        0.0828
     11 N         139.2297  139.7795  164.8036 N.pl3   1  UNL1       -0.2957
     12 C         140.1995  140.7492  165.4113 C.3     1  UNL1        0.1128
     13 C         140.2371  140.9397  166.8986 C.3     1  UNL1        0.1149
     14 N         139.3048  140.1606  167.7783 N.am    1  UNL1       -0.2746
     15 C         139.3423  140.3512  169.2657 C.3     1  UNL1        0.1150
     16 C         138.3349  139.1910  167.1707 C.2     1  UNL1        0.2460
     17 O         137.4027  138.4119  168.0503 O.2     1  UNL1       -0.2730
     18 C         138.2974  139.0005  165.6832 C.3     1  UNL1        0.1774
     19 C         138.1170  142.6757  157.6534 C.2     1  UNL1        0.2455
     20 N         136.8723  142.6416  156.8171 N.am    1  UNL1       -0.3252
     21 O         139.0284  143.8656  157.5938 O.2     1  UNL1       -0.2703
     22 H         136.2742  141.8606  156.8562 H       1  UNL1        0.1453
     23 H         136.6535  143.4003  156.2290 H       1  UNL1        0.1453
     24 N         138.1920  143.0566  160.6281 N.pl3   1  UNL1       -0.3106
     25 H         137.3290  143.4946  160.4476 H       1  UNL1        0.1523
     26 C         139.2111  143.7356  161.4946 C.ar    1  UNL1        0.0763
     27 C         140.6493  143.7753  161.0704 C.ar    1  UNL1        0.0192
     28 C         141.6683  144.4543  161.9367 C.ar    1  UNL1        0.0311
     29 C         141.2491  145.0936  163.2274 C.ar    1  UNL1        0.1425
     30 F         142.2681  145.7726  164.0937 F       1  UNL1       -0.2041
     31 C         139.8109  145.0539  163.6516 C.ar    1  UNL1        0.0605
     32 C         138.7918  144.3749  162.7851 C.ar    1  UNL1        0.1556
     33 F         137.3536  144.3351  163.2093 F       1  UNL1       -0.2028
     34 O         139.8215  137.0868  163.6208 O.3     1  UNL1       -0.4742
     35 C         142.2528  137.9711  163.8586 C.3     1  UNL1        0.0512
     36 C         141.1960  136.9661  164.2092 C.3     1  UNL1        0.2056
@<TRIPOS>BOND
     1    35    36    1
     2    36    34    1
     3    34     1    1
     4     1     2   ar
     5     2     3   ar
     6     3     4   ar
     7     4     5   ar
     8     5     6   ar
     9     6    19    1
    10    19    20   am
    11    19    21    2
    12     6     7   ar
    13     7    24    1
    14    24    26    1
    15    26    27   ar
    16    27    28   ar
    17    28    29   ar
    18    29    30    1
    19    29    31   ar
    20    31    32   ar
    21    32    33    1
    22     7     8   ar
    23     8     9   ar
    24     9    10   ar
    25    10    11    1
    26    11    12    1
    27    12    13    1
    28    13    14    1
    29    14    15    1
    30    14    16   am
    31    16    17    2
    32    16    18    1
    33    10     1   ar
    34    18    11    1
    35     8     3   ar
    36    32    26   ar
    37    20    22    1
    38    20    23    1
    39    24    25    1
@<TRIPOS>MOLECULE
*****
 36 39 0 0 0
SMALL
GASTEIGER

@<TRIPOS>ATOM
      1 C         138.2057  141.1033  162.7269 C.ar    1  UNL1        0.1532
      2 C         137.7173  140.1807  163.8039 C.ar    1  UNL1        0.0573
      3 C         138.4208  140.1344  165.1279 C.ar    1  UNL1        0.0856
      4 N         137.9323  139.2116  166.2050 N.ar    1  UNL1       -0.2435
      5 C         138.6358  139.1654  167.5289 C.ar    1  UNL1        0.1045
      6 C         139.8278  140.0418  167.7759 C.ar    1  UNL1        0.0856
      7 C         140.3163  140.9645  166.6988 C.ar    1  UNL1        0.0557
      8 C         139.6128  141.0108  165.3749 C.ar    1  UNL1        0.0327
      9 C         140.1012  141.9335  164.2979 C.ar    1  UNL1        0.0203
     10 C         139.3977  141.9798  162.9739 C.ar    1  UNL1        0.0828
     11 N         139.8862  142.9025  161.8968 N.pl3   1  UNL1       -0.2957
     12 C         140.7896  142.3837  160.8176 C.3     1  UNL1        0.1128
     13 C         141.2781  143.3064  159.7406 C.3     1  UNL1        0.1149
     14 N         140.8632  144.7480  159.7428 N.am    1  UNL1       -0.2746
     15 C         141.3518  145.6706  158.6658 C.3     1  UNL1        0.1150
     16 C         139.9598  145.2667  160.8220 C.2     1  UNL1        0.2460
     17 O         139.5449  146.7082  160.8242 O.2     1  UNL1       -0.2730
     18 C         139.4713  144.3440  161.8991 C.3     1  UNL1        0.1774
     19 C         140.5314  139.9956  169.0998 C.2     1  UNL1        0.2455
     20 N         139.7369  139.8952  170.3682 N.am    1  UNL1       -0.3252
     21 O         142.0294  140.0497  169.1554 O.2     1  UNL1       -0.2703
     22 H         138.7537  139.8597  170.3317 H       1  UNL1        0.1453
     23 H         140.1987  139.8649  171.2372 H       1  UNL1        0.1453
     24 N         141.5083  141.8410  166.9458 N.pl3   1  UNL1       -0.3106
     25 H         141.5057  142.4745  167.6993 H       1  UNL1        0.1523
     26 C         142.7042  141.7520  166.0447 C.ar    1  UNL1        0.0763
     27 C         143.3751  143.0042  165.5631 C.ar    1  UNL1        0.0192
     28 C         144.5710  142.9154  164.6620 C.ar    1  UNL1        0.0311
     29 C         145.0960  141.5743  164.2425 C.ar    1  UNL1        0.1425
     30 F         146.2918  141.4854  163.3414 F       1  UNL1       -0.2041
     31 C         144.4250  140.3221  164.7241 C.ar    1  UNL1        0.0605
     32 C         143.2291  140.4110  165.6252 C.ar    1  UNL1        0.1556
     33 F         142.5582  139.1588  166.1068 F       1  UNL1       -0.2028
     34 O         137.5022  141.1496  161.4029 O.3     1  UNL1       -0.4742
     35 C         138.8626  139.2025  160.3504 C.3     1  UNL1        0.0512
     36 C         137.5849  139.9793  160.4684 C.3     1  UNL1        0.2056
@<TRIPOS>BOND
     1    35    36    1
     2    36    34    1
     3    34     1    1
     4     1     2   ar
     5     2     3   ar
     6     3     4   ar
     7     4     5   ar
     8     5     6   ar
     9     6    19    1
    10    19    20   am
    11    19    21    2
    12     6     7   ar
    13     7    24    1
    14    24    26    1
    15    26    27   ar
    16    27    28   ar
    17    28    29   ar
    18    29    30    1
    19    29    31   ar
    20    31    32   ar
    21    32    33    1
    22     7     8   ar
    23     8     9   ar
    24     9    10   ar
    25    10    11    1
    26    11    12    1
    27    12    13    1
    28    13    14    1
    29    14    15    1
    30    14    16   am
    31    16    17    2
    32    16    18    1
    33    10     1   ar
    34    18    11    1
    35     8     3   ar
    36    32    26   ar
    37    20    22    1
    38    20    23    1
    39    24    25    1
@<TRIPOS>MOLECULE
*****
 36 39 0 0 0
SMALL
GASTEIGER

@<TRIPOS>ATOM
      1 C         138.5200  140.2068  165.3454 C.ar    1  UNL1        0.1532
      2 C         137.7897  140.7050  164.1336 C.ar    1  UNL1        0.0573
      3 C         138.3161  141.8862  163.3736 C.ar    1  UNL1        0.0856
      4 N         137.5858  142.3844  162.1618 N.ar    1  UNL1       -0.2435
      5 C         138.1122  143.5656  161.4018 C.ar    1  UNL1        0.1045
      6 C         139.3690  144.2487  161.8536 C.ar    1  UNL1        0.0856
      7 C         140.0992  143.7505  163.0654 C.ar    1  UNL1        0.0557
      8 C         139.5728  142.5693  163.8254 C.ar    1  UNL1        0.0327
      9 C         140.3031  142.0711  165.0372 C.ar    1  UNL1        0.0203
     10 C         139.7767  140.8899  165.7972 C.ar    1  UNL1        0.0828
     11 N         140.5071  140.3917  167.0090 N.pl3   1  UNL1       -0.2957
     12 C         141.9229  139.9116  166.8867 C.3     1  UNL1        0.1128
     13 C         142.6533  139.4135  168.0984 C.3     1  UNL1        0.1149
     14 N         141.9678  139.3953  169.4326 N.am    1  UNL1       -0.2746
     15 C         142.6981  138.8972  170.6443 C.3     1  UNL1        0.1150
     16 C         140.5519  139.8754  169.5549 C.2     1  UNL1        0.2460
     17 O         139.8665  139.8573  170.8889 O.2     1  UNL1       -0.2730
     18 C         139.8216  140.3736  168.3431 C.3     1  UNL1        0.1774
     19 C         139.8954  145.4299  161.0936 C.2     1  UNL1        0.2455
     20 N         139.1177  146.7123  161.0679 N.am    1  UNL1       -0.3252
     21 O         141.1995  145.3287  160.3593 O.2     1  UNL1       -0.2703
     22 H         138.2618  146.7787  161.5498 H       1  UNL1        0.1453
     23 H         139.4632  147.4876  160.5691 H       1  UNL1        0.1453
     24 N         141.3559  144.4335  163.5172 N.pl3   1  UNL1       -0.3106
     25 H         141.3370  145.3867  163.7631 H       1  UNL1        0.1523
     26 C         142.6415  143.6644  163.5943 C.ar    1  UNL1        0.0763
     27 C         143.5191  143.7901  164.8043 C.ar    1  UNL1        0.0192
     28 C         144.8046  143.0210  164.8815 C.ar    1  UNL1        0.0311
     29 C         145.2125  142.1262  163.7487 C.ar    1  UNL1        0.1425
     30 F         146.4980  141.3571  163.8259 F       1  UNL1       -0.2041
     31 C         144.3348  142.0005  162.5388 C.ar    1  UNL1        0.0605
     32 C         143.0493  142.7697  162.4616 C.ar    1  UNL1        0.1556
     33 F         142.1716  142.6440  161.2517 F       1  UNL1       -0.2028
     34 O         137.9936  139.0256  166.1054 O.3     1  UNL1       -0.4742
     35 C         139.5528  137.4550  164.7444 C.3     1  UNL1        0.0512
     36 C         138.5150  137.6506  165.8097 C.3     1  UNL1        0.2056
@<TRIPOS>BOND
     1    35    36    1
     2    36    34    1
     3    34     1    1
     4     1     2   ar
     5     2     3   ar
     6     3     4   ar
     7     4     5   ar
     8     5     6   ar
     9     6    19    1
    10    19    20   am
    11    19    21    2
    12     6     7   ar
    13     7    24    1
    14    24    26    1
    15    26    27   ar
    16    27    28   ar
    17    28    29   ar
    18    29    30    1
    19    29    31   ar
    20    31    32   ar
    21    32    33    1
    22     7     8   ar
    23     8     9   ar
    24     9    10   ar
    25    10    11    1
    26    11    12    1
    27    12    13    1
    28    13    14    1
    29    14    15    1
    30    14    16   am
    31    16    17    2
    32    16    18    1
    33    10     1   ar
    34    18    11    1
    35     8     3   ar
    36    32    26   ar
    37    20    22    1
    38    20    23    1
    39    24    25    1
@<TRIPOS>MOLECULE
*****
 36 39 0 0 0
SMALL
GASTEIGER

@<TRIPOS>ATOM
      1 C         143.2233  143.3829  164.4439 C.ar    1  UNL1        0.1532
      2 C         143.7385  143.0791  165.8195 C.ar    1  UNL1        0.0573
      3 C         142.8873  142.3107  166.7864 C.ar    1  UNL1        0.0856
      4 N         143.4025  142.0069  168.1621 N.ar    1  UNL1       -0.2435
      5 C         142.5513  141.2386  169.1290 C.ar    1  UNL1        0.1045
      6 C         141.1848  140.7741  168.7204 C.ar    1  UNL1        0.0856
      7 C         140.6696  141.0779  167.3448 C.ar    1  UNL1        0.0557
      8 C         141.5208  141.8462  166.3779 C.ar    1  UNL1        0.0327
      9 C         141.0056  142.1501  165.0023 C.ar    1  UNL1        0.0203
     10 C         141.8568  142.9184  164.0353 C.ar    1  UNL1        0.0828
     11 N         141.3416  143.2223  162.6597 N.pl3   1  UNL1       -0.2957
     12 C         141.4958  142.2126  161.5611 C.3     1  UNL1        0.1128
     13 C         140.9805  142.5164  160.1856 C.3     1  UNL1        0.1149
     14 N         140.3110  143.8299  159.9085 N.am    1  UNL1       -0.2746
     15 C         139.7958  144.1336  158.5330 C.3     1  UNL1        0.1150
     16 C         140.1568  144.8395  161.0071 C.2     1  UNL1        0.2460
     17 O         139.4874  146.1529  160.7301 O.2     1  UNL1       -0.2730
     18 C         140.6721  144.5357  162.3827 C.3     1  UNL1        0.1774
     19 C         140.3335  140.0057  169.6874 C.2     1  UNL1        0.2455
     20 N         140.9767  139.1250  170.7171 N.am    1  UNL1       -0.3252
     21 O         138.8390  140.1182  169.6245 O.2     1  UNL1       -0.2703
     22 H         141.9576  139.0512  170.7584 H       1  UNL1        0.1453
     23 H         140.4180  138.6207  171.3518 H       1  UNL1        0.1453
     24 N         139.3031  140.6134  166.9363 N.pl3   1  UNL1       -0.3106
     25 H         138.5250  140.8120  167.5057 H       1  UNL1        0.1523
     26 C         139.1222  139.8462  165.6600 C.ar    1  UNL1        0.0763
     27 C         139.7994  138.5200  165.4797 C.ar    1  UNL1        0.0192
     28 C         139.6185  137.7528  164.2036 C.ar    1  UNL1        0.0311
     29 C         138.7604  138.3118  163.1076 C.ar    1  UNL1        0.1425
     30 F         138.5795  137.5446  161.8314 F       1  UNL1       -0.2041
     31 C         138.0832  139.6380  163.2878 C.ar    1  UNL1        0.0605
     32 C         138.2641  140.4052  164.5641 C.ar    1  UNL1        0.1556
     33 F         137.5868  141.7314  164.7443 F       1  UNL1       -0.2028
     34 O         144.0745  144.1513  163.4769 O.3     1  UNL1       -0.4742
     35 C         145.1780  142.0027  162.5199 C.3     1  UNL1        0.0512
     36 C         144.7676  143.4360  162.3553 C.3     1  UNL1        0.2056
@<TRIPOS>BOND
     1    35    36    1
     2    36    34    1
     3    34     1    1
     4     1     2   ar
     5     2     3   ar
     6     3     4   ar
     7     4     5   ar
     8     5     6   ar
     9     6    19    1
    10    19    20   am
    11    19    21    2
    12     6     7   ar
    13     7    24    1
    14    24    26    1
    15    26    27   ar
    16    27    28   ar
    17    28    29   ar
    18    29    30    1
    19    29    31   ar
    20    31    32   ar
    21    32    33    1
    22     7     8   ar
    23     8     9   ar
    24     9    10   ar
    25    10    11    1
    26    11    12    1
    27    12    13    1
    28    13    14    1
    29    14    15    1
    30    14    16   am
    31    16    17    2
    32    16    18    1
    33    10     1   ar
    34    18    11    1
    35     8     3   ar
    36    32    26   ar
    37    20    22    1
    38    20    23    1
    39    24    25    1
@<TRIPOS>MOLECULE
*****
 36 39 0 0 0
SMALL
GASTEIGER

@<TRIPOS>ATOM
      1 C         143.8189  142.1881  164.6083 C.ar    1  UNL1        0.1532
      2 C         143.7238  142.5913  166.0500 C.ar    1  UNL1        0.0573
      3 C         142.7052  141.9474  166.9432 C.ar    1  UNL1        0.0856
      4 N         142.6102  142.3506  168.3849 N.ar    1  UNL1       -0.2435
      5 C         141.5916  141.7067  169.2782 C.ar    1  UNL1        0.1045
      6 C         140.6680  140.6597  168.7297 C.ar    1  UNL1        0.0856
      7 C         140.7631  140.2565  167.2880 C.ar    1  UNL1        0.0557
      8 C         141.7817  140.9004  166.3948 C.ar    1  UNL1        0.0327
      9 C         141.8768  140.4972  164.9532 C.ar    1  UNL1        0.0203
     10 C         142.8954  141.1411  164.0599 C.ar    1  UNL1        0.0828
     11 N         142.9904  140.7379  162.6182 N.pl3   1  UNL1       -0.2957
     12 C         143.9612  139.6738  162.1995 C.3     1  UNL1        0.1128
     13 C         144.0563  139.2706  160.7579 C.3     1  UNL1        0.1149
     14 N         143.1805  139.9315  159.7349 N.am    1  UNL1       -0.2746
     15 C         143.2756  139.5282  158.2932 C.3     1  UNL1        0.1150
     16 C         142.2097  140.9955  160.1536 C.2     1  UNL1        0.2460
     17 O         141.3340  141.6564  159.1307 O.2     1  UNL1       -0.2730
     18 C         142.1147  141.3987  161.5953 C.3     1  UNL1        0.1774
     19 C         139.6494  140.0158  169.6229 C.2     1  UNL1        0.2455
     20 N         139.9629  139.7812  171.0709 N.am    1  UNL1       -0.3252
     21 O         138.3172  139.6065  169.0681 O.2     1  UNL1       -0.2703
     22 H         140.8373  140.0498  171.4350 H       1  UNL1        0.1453
     23 H         139.2944  139.3586  171.6571 H       1  UNL1        0.1453
     24 N         139.8395  139.2095  166.7396 N.pl3   1  UNL1       -0.3106
     25 H         139.6622  138.3902  167.2560 H       1  UNL1        0.1523
     26 C         139.1862  139.4106  165.4044 C.ar    1  UNL1        0.0763
     27 C         138.3921  140.6550  165.1379 C.ar    1  UNL1        0.0192
     28 C         137.7388  140.8562  163.8028 C.ar    1  UNL1        0.0311
     29 C         137.8794  139.8130  162.7341 C.ar    1  UNL1        0.1425
     30 F         137.2261  140.0142  161.3990 F       1  UNL1       -0.2041
     31 C         138.6735  138.5686  163.0006 C.ar    1  UNL1        0.0605
     32 C         139.3268  138.3675  164.3358 C.ar    1  UNL1        0.1556
     33 F         140.1209  137.1231  164.6024 F       1  UNL1       -0.2028
     34 O         144.8375  142.8320  163.7151 O.3     1  UNL1       -0.4742
     35 C         143.2303  144.7977  163.1648 C.3     1  UNL1        0.0512
     36 C         144.4434  143.9799  162.8337 C.3     1  UNL1        0.2056
@<TRIPOS>BOND
     1    35    36    1
     2    36    34    1
     3    34     1    1
     4     1     2   ar
     5     2     3   ar
     6     3     4   ar
     7     4     5   ar
     8     5     6   ar
     9     6    19    1
    10    19    20   am
    11    19    21    2
    12     6     7   ar
    13     7    24    1
    14    24    26    1
    15    26    27   ar
    16    27    28   ar
    17    28    29   ar
    18    29    30    1
    19    29    31   ar
    20    31    32   ar
    21    32    33    1
    22     7     8   ar
    23     8     9   ar
    24     9    10   ar
    25    10    11    1
    26    11    12    1
    27    12    13    1
    28    13    14    1
    29    14    15    1
    30    14    16   am
    31    16    17    2
    32    16    18    1
    33    10     1   ar
    34    18    11    1
    35     8     3   ar
    36    32    26   ar
    37    20    22    1
    38    20    23    1
    39    24    25    1
@<TRIPOS>MOLECULE
*****
 36 39 0 0 0
SMALL
GASTEIGER

@<TRIPOS>ATOM
      1 C         139.1783  143.3246  164.0690 C.ar    1  UNL1        0.1532
      2 C         139.5176  143.6458  165.4944 C.ar    1  UNL1        0.0573
      3 C         140.1793  142.6137  166.3587 C.ar    1  UNL1        0.0856
      4 N         140.5185  142.9349  167.7841 N.ar    1  UNL1       -0.2435
      5 C         141.1802  141.9028  168.6484 C.ar    1  UNL1        0.1045
      6 C         141.5026  140.5495  168.0873 C.ar    1  UNL1        0.0856
      7 C         141.1633  140.2284  166.6619 C.ar    1  UNL1        0.0557
      8 C         140.5016  141.2605  165.7976 C.ar    1  UNL1        0.0327
      9 C         140.1624  140.9393  164.3723 C.ar    1  UNL1        0.0203
     10 C         139.5007  141.9714  163.5080 C.ar    1  UNL1        0.0828
     11 N         139.1614  141.6502  162.0825 N.pl3   1  UNL1       -0.2957
     12 C         137.9774  140.7839  161.7703 C.3     1  UNL1        0.1128
     13 C         137.6381  140.4627  160.3450 C.3     1  UNL1        0.1149
     14 N         138.4829  141.0078  159.2317 N.am    1  UNL1       -0.2746
     15 C         138.1436  140.6866  157.8064 C.3     1  UNL1        0.1150
     16 C         139.6669  141.8741  159.5439 C.2     1  UNL1        0.2460
     17 O         140.5117  142.4193  158.4308 O.2     1  UNL1       -0.2730
     18 C         140.0062  142.1953  160.9694 C.3     1  UNL1        0.1774
     19 C         142.1642  139.5174  168.9516 C.2     1  UNL1        0.2455
     20 N         141.7096  139.3217  170.3676 N.am    1  UNL1       -0.3252
     21 O         143.2805  138.6810  168.3999 O.2     1  UNL1       -0.2703
     22 H         140.9769  139.8707  170.7297 H       1  UNL1        0.1453
     23 H         142.1438  138.6443  170.9348 H       1  UNL1        0.1453
     24 N         141.4856  138.8752  166.1009 N.pl3   1  UNL1       -0.3106
     25 H         141.1872  138.0634  166.5713 H       1  UNL1        0.1523
     26 C         142.2628  138.7587  164.8231 C.ar    1  UNL1        0.0763
     27 C         143.5865  139.4505  164.6847 C.ar    1  UNL1        0.0192
     28 C         144.3636  139.3341  163.4070 C.ar    1  UNL1        0.0311
     29 C         143.8170  138.5258  162.2677 C.ar    1  UNL1        0.1425
     30 F         144.5941  138.4093  160.9900 F       1  UNL1       -0.2041
     31 C         142.4933  137.8339  162.4061 C.ar    1  UNL1        0.0605
     32 C         141.7162  137.9504  163.6839 C.ar    1  UNL1        0.1556
     33 F         140.3925  137.2586  163.8223 F       1  UNL1       -0.2028
     34 O         138.5167  144.3567  163.2047 O.3     1  UNL1       -0.4742
     35 C         140.8322  145.4026  162.6619 C.3     1  UNL1        0.0512
     36 C         139.3352  145.4457  162.5768 C.3     1  UNL1        0.2056
@<TRIPOS>BOND
     1    35    36    1
     2    36    34    1
     3    34     1    1
     4     1     2   ar
     5     2     3   ar
     6     3     4   ar
     7     4     5   ar
     8     5     6   ar
     9     6    19    1
    10    19    20   am
    11    19    21    2
    12     6     7   ar
    13     7    24    1
    14    24    26    1
    15    26    27   ar
    16    27    28   ar
    17    28    29   ar
    18    29    30    1
    19    29    31   ar
    20    31    32   ar
    21    32    33    1
    22     7     8   ar
    23     8     9   ar
    24     9    10   ar
    25    10    11    1
    26    11    12    1
    27    12    13    1
    28    13    14    1
    29    14    15    1
    30    14    16   am
    31    16    17    2
    32    16    18    1
    33    10     1   ar
    34    18    11    1
    35     8     3   ar
    36    32    26   ar
    37    20    22    1
    38    20    23    1
    39    24    25    1
@<TRIPOS>MOLECULE
*****
 36 39 0 0 0
SMALL
GASTEIGER

@<TRIPOS>ATOM
      1 C         137.9188  140.7075  162.3058 C.ar    1  UNL1        0.1532
      2 C         137.7615  140.6000  160.8180 C.ar    1  UNL1        0.0573
      3 C         138.8033  139.8928  160.0028 C.ar    1  UNL1        0.0856
      4 N         138.6459  139.7852  158.5149 N.ar    1  UNL1       -0.2435
      5 C         139.6877  139.0781  157.6997 C.ar    1  UNL1        0.1045
      6 C         140.8869  138.4785  158.3724 C.ar    1  UNL1        0.0856
      7 C         141.0443  138.5861  159.8602 C.ar    1  UNL1        0.0557
      8 C         140.0024  139.2932  160.6754 C.ar    1  UNL1        0.0327
      9 C         140.1598  139.4008  162.1632 C.ar    1  UNL1        0.0203
     10 C         139.1180  140.1079  162.9784 C.ar    1  UNL1        0.0828
     11 N         139.2754  140.2155  164.4663 N.pl3   1  UNL1       -0.2957
     12 C         140.2436  141.2021  165.0487 C.3     1  UNL1        0.1128
     13 C         140.4010  141.3096  166.5365 C.3     1  UNL1        0.1149
     14 N         139.5902  140.4306  167.4420 N.am    1  UNL1       -0.2746
     15 C         139.7476  140.5382  168.9298 C.3     1  UNL1        0.1150
     16 C         138.6219  139.4441  166.8596 C.2     1  UNL1        0.2460
     17 O         137.8111  138.5651  167.7651 O.2     1  UNL1       -0.2730
     18 C         138.4645  139.3365  165.3717 C.3     1  UNL1        0.1774
     19 C         141.9287  137.7713  157.5572 C.2     1  UNL1        0.2455
     20 N         141.5206  136.7234  156.5647 N.am    1  UNL1       -0.3252
     21 O         143.3787  138.1121  157.7346 O.2     1  UNL1       -0.2703
     22 H         140.5690  136.4997  156.4482 H       1  UNL1        0.1453
     23 H         142.2044  136.2593  156.0296 H       1  UNL1        0.1453
     24 N         142.2434  137.9865  160.5328 N.pl3   1  UNL1       -0.3106
     25 H         142.4478  137.0308  160.4142 H       1  UNL1        0.1523
     26 C         143.1312  138.8430  161.3863 C.ar    1  UNL1        0.0763
     27 C         143.5019  138.3946  162.7689 C.ar    1  UNL1        0.0192
     28 C         144.3896  139.2511  163.6223 C.ar    1  UNL1        0.0311
     29 C         144.9066  140.5560  163.0932 C.ar    1  UNL1        0.1425
     30 F         145.7943  141.4125  163.9466 F       1  UNL1       -0.2041
     31 C         144.5359  141.0044  161.7106 C.ar    1  UNL1        0.0605
     32 C         143.6481  140.1479  160.8572 C.ar    1  UNL1        0.1556
     33 F         143.2774  140.5963  159.4746 F       1  UNL1       -0.2028
     34 O         136.8770  141.4147  163.1210 O.3     1  UNL1       -0.4742
     35 C         137.9318  143.7741  162.8557 C.3     1  UNL1        0.0512
     36 C         137.1554  142.7824  163.6703 C.3     1  UNL1        0.2056
@<TRIPOS>BOND
     1    35    36    1
     2    36    34    1
     3    34     1    1
     4     1     2   ar
     5     2     3   ar
     6     3     4   ar
     7     4     5   ar
     8     5     6   ar
     9     6    19    1
    10    19    20   am
    11    19    21    2
    12     6     7   ar
    13     7    24    1
    14    24    26    1
    15    26    27   ar
    16    27    28   ar
    17    28    29   ar
    18    29    30    1
    19    29    31   ar
    20    31    32   ar
    21    32    33    1
    22     7     8   ar
    23     8     9   ar
    24     9    10   ar
    25    10    11    1
    26    11    12    1
    27    12    13    1
    28    13    14    1
    29    14    15    1
    30    14    16   am
    31    16    17    2
    32    16    18    1
    33    10     1   ar
    34    18    11    1
    35     8     3   ar
    36    32    26   ar
    37    20    22    1
    38    20    23    1
    39    24    25    1
@<TRIPOS>MOLECULE
*****
 36 39 0 0 0
SMALL
GASTEIGER

@<TRIPOS>ATOM
      1 C         139.2094  138.5416  163.2883 C.ar    1  UNL1        0.1532
      2 C         138.6071  138.7081  164.6519 C.ar    1  UNL1        0.0573
      3 C         139.4438  139.2285  165.7829 C.ar    1  UNL1        0.0856
      4 N         138.8415  139.3950  167.1466 N.ar    1  UNL1       -0.2435
      5 C         139.6781  139.9153  168.2776 C.ar    1  UNL1        0.1045
      6 C         141.1172  140.2692  168.0449 C.ar    1  UNL1        0.0856
      7 C         141.7194  140.1026  166.6813 C.ar    1  UNL1        0.0557
      8 C         140.8828  139.5823  165.5503 C.ar    1  UNL1        0.0327
      9 C         141.4851  139.4158  164.1867 C.ar    1  UNL1        0.0203
     10 C         140.6484  138.8954  163.0557 C.ar    1  UNL1        0.0828
     11 N         141.2507  138.7289  161.6920 N.pl3   1  UNL1       -0.2957
     12 C         142.2677  137.6538  161.4475 C.3     1  UNL1        0.1128
     13 C         142.8701  137.4872  160.0840 C.3     1  UNL1        0.1149
     14 N         142.4555  138.3959  158.9648 N.am    1  UNL1       -0.2746
     15 C         143.0578  138.2293  157.6012 C.3     1  UNL1        0.1150
     16 C         141.4385  139.4710  159.2092 C.2     1  UNL1        0.2460
     17 O         141.0238  140.3796  158.0901 O.2     1  UNL1       -0.2730
     18 C         140.8361  139.6375  160.5729 C.3     1  UNL1        0.1774
     19 C         141.9538  140.7895  169.1760 C.2     1  UNL1        0.2455
     20 N         141.5462  142.0401  169.8969 N.am    1  UNL1       -0.3252
     21 O         143.1983  140.0592  169.5861 O.2     1  UNL1       -0.2703
     22 H         140.7294  142.5194  169.6277 H       1  UNL1        0.1453
     23 H         142.0953  142.3816  170.6392 H       1  UNL1        0.1453
     24 N         143.1584  140.4565  166.4487 N.pl3   1  UNL1       -0.3106
     25 H         143.8668  139.9927  166.9512 H       1  UNL1        0.1523
     26 C         143.5182  141.5169  165.4506 C.ar    1  UNL1        0.0763
     27 C         142.7554  142.8081  165.4204 C.ar    1  UNL1        0.0192
     28 C         143.1151  143.8685  164.4223 C.ar    1  UNL1        0.0311
     29 C         144.2376  143.6377  163.4544 C.ar    1  UNL1        0.1425
     30 F         144.5973  144.6981  162.4564 F       1  UNL1       -0.2041
     31 C         145.0004  142.3464  163.4846 C.ar    1  UNL1        0.0605
     32 C         144.6406  141.2860  164.4828 C.ar    1  UNL1        0.1556
     33 F         145.4034  139.9948  164.5130 F       1  UNL1       -0.2028
     34 O         138.3727  138.0212  162.1573 O.3     1  UNL1       -0.4742
     35 C         137.5521  140.4312  161.6389 C.3     1  UNL1        0.0512
     36 C         137.4745  138.9526  161.3986 C.3     1  UNL1        0.2056
@<TRIPOS>BOND
     1    35    36    1
     2    36    34    1
     3    34     1    1
     4     1     2   ar
     5     2     3   ar
     6     3     4   ar
     7     4     5   ar
     8     5     6   ar
     9     6    19    1
    10    19    20   am
    11    19    21    2
    12     6     7   ar
    13     7    24    1
    14    24    26    1
    15    26    27   ar
    16    27    28   ar
    17    28    29   ar
    18    29    30    1
    19    29    31   ar
    20    31    32   ar
    21    32    33    1
    22     7     8   ar
    23     8     9   ar
    24     9    10   ar
    25    10    11    1
    26    11    12    1
    27    12    13    1
    28    13    14    1
    29    14    15    1
    30    14    16   am
    31    16    17    2
    32    16    18    1
    33    10     1   ar
    34    18    11    1
    35     8     3   ar
    36    32    26   ar
    37    20    22    1
    38    20    23    1
    39    24    25    1
@<TRIPOS>MOLECULE
*****
 36 39 0 0 0
SMALL
GASTEIGER

@<TRIPOS>ATOM
      1 C         138.9843  139.5148  164.6875 C.ar    1  UNL1        0.1532
      2 C         138.6020  138.9007  163.3735 C.ar    1  UNL1        0.0573
      3 C         139.6207  138.7755  162.2796 C.ar    1  UNL1        0.0856
      4 N         139.2383  138.1613  160.9655 N.ar    1  UNL1       -0.2435
      5 C         140.2570  138.0361  159.8716 C.ar    1  UNL1        0.1045
      6 C         141.6579  138.5251  160.0917 C.ar    1  UNL1        0.0856
      7 C         142.0401  139.1393  161.4057 C.ar    1  UNL1        0.0557
      8 C         141.0215  139.2645  162.4996 C.ar    1  UNL1        0.0327
      9 C         141.4037  139.8786  163.8136 C.ar    1  UNL1        0.0203
     10 C         140.3851  140.0038  164.9076 C.ar    1  UNL1        0.0828
     11 N         140.7674  140.6180  166.2216 N.pl3   1  UNL1       -0.2957
     12 C         140.2290  141.9646  166.6050 C.3     1  UNL1        0.1128
     13 C         140.6113  142.5788  167.9190 C.3     1  UNL1        0.1149
     14 N         141.5320  141.8464  168.8497 N.am    1  UNL1       -0.2746
     15 C         141.9142  142.4606  170.1637 C.3     1  UNL1        0.1150
     16 C         142.0704  140.4999  168.4663 C.2     1  UNL1        0.2460
     17 O         142.9910  139.7676  169.3969 O.2     1  UNL1       -0.2730
     18 C         141.6881  139.8857  167.1522 C.3     1  UNL1        0.1774
     19 C         142.6765  138.3999  158.9977 C.2     1  UNL1        0.2455
     20 N         142.6344  137.2265  158.0644 N.am    1  UNL1       -0.3252
     21 O         143.7373  139.4483  158.8371 O.2     1  UNL1       -0.2703
     22 H         141.9382  136.5384  158.1698 H       1  UNL1        0.1453
     23 H         143.3029  137.1443  157.3464 H       1  UNL1        0.1453
     24 N         143.4410  139.6283  161.6257 N.pl3   1  UNL1       -0.3106
     25 H         144.1976  139.0024  161.5547 H       1  UNL1        0.1523
     26 C         143.6890  141.0708  161.9539 C.ar    1  UNL1        0.0763
     27 C         142.9339  142.1454  161.2293 C.ar    1  UNL1        0.0192
     28 C         143.1818  143.5879  161.5574 C.ar    1  UNL1        0.0311
     29 C         144.1850  143.9558  162.6102 C.ar    1  UNL1        0.1425
     30 F         144.4330  145.3983  162.9384 F       1  UNL1       -0.2041
     31 C         144.9401  142.8813  163.3349 C.ar    1  UNL1        0.0605
     32 C         144.6921  141.4387  163.0067 C.ar    1  UNL1        0.1556
     33 F         145.4472  140.3641  163.7313 F       1  UNL1       -0.2028
     34 O         137.9657  139.6400  165.7815 O.3     1  UNL1       -0.4742
     35 C         137.3997  137.3678  166.9070 C.3     1  UNL1        0.0512
     36 C         138.0271  138.7288  166.9714 C.3     1  UNL1        0.2056
@<TRIPOS>BOND
     1    35    36    1
     2    36    34    1
     3    34     1    1
     4     1     2   ar
     5     2     3   ar
     6     3     4   ar
     7     4     5   ar
     8     5     6   ar
     9     6    19    1
    10    19    20   am
    11    19    21    2
    12     6     7   ar
    13     7    24    1
    14    24    26    1
    15    26    27   ar
    16    27    28   ar
    17    28    29   ar
    18    29    30    1
    19    29    31   ar
    20    31    32   ar
    21    32    33    1
    22     7     8   ar
    23     8     9   ar
    24     9    10   ar
    25    10    11    1
    26    11    12    1
    27    12    13    1
    28    13    14    1
    29    14    15    1
    30    14    16   am
    31    16    17    2
    32    16    18    1
    33    10     1   ar
    34    18    11    1
    35     8     3   ar
    36    32    26   ar
    37    20    22    1
    38    20    23    1
    39    24    25    1
