@<TRIPOS>MOLECULE
*****
 20 20 0 0 0
SMALL
GASTEIGER

@<TRIPOS>ATOM
      1 N         139.6579  142.9533  164.0880 N.3     1  UNL1       -0.2690
      2 C         138.6734  144.0806  164.1879 C.3     1  UNL1        0.0724
      3 C         138.5868  144.8912  165.4470 C.3     1  UNL1        0.0188
      4 C         139.3228  141.6113  164.6682 C.3     1  UNL1        0.0724
      5 C         139.5874  141.3339  166.1184 C.3     1  UNL1        0.0173
      6 C         139.2246  140.0021  166.7056 C.3     1  UNL1        0.0014
      7 C         138.2905  139.0876  165.9701 C.3     1  UNL1        0.0000
      8 C         138.8087  137.8191  165.3598 C.3     1  UNL1        0.0000
      9 C         141.1205  137.0816  164.4314 C.3     1  UNL1        0.0000
     10 C         139.8562  137.8760  164.2876 C.3     1  UNL1        0.0000
     11 C         140.9774  143.1680  163.4077 C.3     1  UNL1        0.0986
     12 C         141.9635  144.1455  163.9752 C.2     1  UNL1       -0.0130
     13 C         143.2350  143.6516  164.5991 C.2     1  UNL1       -0.0246
     14 C         143.5206  142.1802  164.6554 C.3     1  UNL1        0.0520
     15 C         143.2155  141.4042  165.9023 C.ar    1  UNL1       -0.0178
     16 C         143.0260  142.1226  167.2053 C.ar    1  UNL1       -0.0039
     17 C         142.7209  141.3466  168.4522 C.ar    1  UNL1       -0.0003
     18 C         142.6053  139.8522  168.3961 C.ar    1  UNL1       -0.0000
     19 C         142.7947  139.1337  167.0931 C.ar    1  UNL1       -0.0003
     20 C         143.0998  139.9097  165.8462 C.ar    1  UNL1       -0.0039
@<TRIPOS>BOND
     1     9    10    1
     2    10     8    1
     3     8     7    1
     4     7     6    1
     5     6     5    1
     6     5     4    1
     7     4     1    1
     8     1     2    1
     9     2     3    1
    10     1    11    1
    11    11    12    1
    12    12    13    2
    13    13    14    1
    14    14    15    1
    15    15    16   ar
    16    16    17   ar
    17    17    18   ar
    18    18    19   ar
    19    19    20   ar
    20    20    15   ar
@<TRIPOS>MOLECULE
*****
 20 20 0 0 0
SMALL
GASTEIGER

@<TRIPOS>ATOM
      1 N         143.9507  142.5410  162.3841 N.3     1  UNL1       -0.2690
      2 C         145.2143  141.7609  162.5953 C.3     1  UNL1        0.0724
      3 C         145.6355  141.3768  163.9828 C.3     1  UNL1        0.0188
      4 C         142.6518  141.8216  162.1717 C.3     1  UNL1        0.0724
      5 C         141.9078  141.2549  163.3445 C.3     1  UNL1        0.0173
      6 C         142.0907  141.8522  164.7083 C.3     1  UNL1        0.0014
      7 C         140.9389  141.8964  165.6682 C.3     1  UNL1        0.0000
      8 C         140.2458  140.6274  166.0671 C.3     1  UNL1        0.0000
      9 C         138.5612  139.6926  164.3241 C.3     1  UNL1        0.0000
     10 C         138.8326  140.3758  165.6317 C.3     1  UNL1        0.0000
     11 C         143.9860  144.0406  162.3852 C.3     1  UNL1        0.0986
     12 C         143.7194  144.7962  163.6532 C.2     1  UNL1       -0.0130
     13 C         142.3746  145.4181  163.8871 C.2     1  UNL1       -0.0246
     14 C         141.2964  145.2846  162.8530 C.3     1  UNL1        0.0520
     15 C         140.0022  144.6111  163.2015 C.ar    1  UNL1       -0.0178
     16 C         139.3608  143.6688  162.2265 C.ar    1  UNL1       -0.0039
     17 C         138.0666  142.9953  162.5750 C.ar    1  UNL1       -0.0003
     18 C         137.4138  143.2641  163.8984 C.ar    1  UNL1       -0.0000
     19 C         138.0552  144.2064  164.8734 C.ar    1  UNL1       -0.0003
     20 C         139.3494  144.8799  164.5249 C.ar    1  UNL1       -0.0039
@<TRIPOS>BOND
     1     9    10    1
     2    10     8    1
     3     8     7    1
     4     7     6    1
     5     6     5    1
     6     5     4    1
     7     4     1    1
     8     1     2    1
     9     2     3    1
    10     1    11    1
    11    11    12    1
    12    12    13    2
    13    13    14    1
    14    14    15    1
    15    15    16   ar
    16    16    17   ar
    17    17    18   ar
    18    18    19   ar
    19    19    20   ar
    20    20    15   ar
@<TRIPOS>MOLECULE
*****
 20 20 0 0 0
SMALL
GASTEIGER

@<TRIPOS>ATOM
      1 N         139.4911  140.7243  166.7037 N.3     1  UNL1       -0.2690
      2 C         139.6618  140.2081  168.1017 C.3     1  UNL1        0.0724
      3 C         141.0372  139.9643  168.6485 C.3     1  UNL1        0.0188
      4 C         140.1512  142.0068  166.2921 C.3     1  UNL1        0.0724
      5 C         141.4400  141.9746  165.5254 C.3     1  UNL1        0.0173
      6 C         142.7464  142.1220  166.2479 C.3     1  UNL1        0.0014
      7 C         143.9380  142.6888  165.5347 C.3     1  UNL1        0.0000
      8 C         143.7677  143.3533  164.2008 C.3     1  UNL1        0.0000
      9 C         142.2421  145.3647  163.5868 C.3     1  UNL1        0.0000
     10 C         143.5380  144.8337  164.1242 C.3     1  UNL1        0.0000
     11 C         138.6604  139.9581  165.7174 C.3     1  UNL1        0.0986
     12 C         138.6449  138.4587  165.7547 C.2     1  UNL1       -0.0130
     13 C         139.5107  137.6760  164.8125 C.2     1  UNL1       -0.0246
     14 C         140.3920  138.3927  163.8329 C.3     1  UNL1        0.0520
     15 C         141.8287  138.6590  164.1719 C.ar    1  UNL1       -0.0178
     16 C         142.3583  138.2995  165.5284 C.ar    1  UNL1       -0.0039
     17 C         143.7951  138.5658  165.8674 C.ar    1  UNL1       -0.0003
     18 C         144.7022  139.1915  164.8498 C.ar    1  UNL1       -0.0000
     19 C         144.1726  139.5510  163.4932 C.ar    1  UNL1       -0.0003
     20 C         142.7358  139.2847  163.1543 C.ar    1  UNL1       -0.0039
@<TRIPOS>BOND
     1     9    10    1
     2    10     8    1
     3     8     7    1
     4     7     6    1
     5     6     5    1
     6     5     4    1
     7     4     1    1
     8     1     2    1
     9     2     3    1
    10     1    11    1
    11    11    12    1
    12    12    13    2
    13    13    14    1
    14    14    15    1
    15    15    16   ar
    16    16    17   ar
    17    17    18   ar
    18    18    19   ar
    19    19    20   ar
    20    20    15   ar
@<TRIPOS>MOLECULE
*****
 20 20 0 0 0
SMALL
GASTEIGER

@<TRIPOS>ATOM
      1 N         139.1819  139.6654  165.1111 N.3     1  UNL1       -0.2690
      2 C         138.4149  138.4972  165.6561 C.3     1  UNL1        0.0724
      3 C         137.7003  138.6162  166.9696 C.3     1  UNL1        0.0188
      4 C         138.5521  141.0263  165.0778 C.3     1  UNL1        0.0724
      5 C         137.8957  141.5185  163.8221 C.3     1  UNL1        0.0173
      6 C         137.7807  142.9917  163.5637 C.3     1  UNL1        0.0014
      7 C         137.7255  143.9528  164.7141 C.3     1  UNL1        0.0000
      8 C         138.9766  144.6350  165.1821 C.3     1  UNL1        0.0000
      9 C         141.3250  143.6536  164.6607 C.3     1  UNL1        0.0000
     10 C         140.2115  144.6031  164.3312 C.3     1  UNL1        0.0000
     11 C         140.5786  139.4727  164.5994 C.3     1  UNL1        0.0986
     12 C         141.5557  138.6444  165.3799 C.2     1  UNL1       -0.0130
     13 C         142.3653  139.2732  166.4750 C.2     1  UNL1       -0.0246
     14 C         142.1978  140.7303  166.7896 C.3     1  UNL1        0.0520
     15 C         141.3268  141.1551  167.9345 C.ar    1  UNL1       -0.0178
     16 C         140.4729  140.1451  168.6422 C.ar    1  UNL1       -0.0039
     17 C         139.6018  140.5700  169.7871 C.ar    1  UNL1       -0.0003
     18 C         139.5847  142.0047  170.2243 C.ar    1  UNL1       -0.0000
     19 C         140.4385  143.0146  169.5166 C.ar    1  UNL1       -0.0003
     20 C         141.3096  142.5898  168.3717 C.ar    1  UNL1       -0.0039
@<TRIPOS>BOND
     1     9    10    1
     2    10     8    1
     3     8     7    1
     4     7     6    1
     5     6     5    1
     6     5     4    1
     7     4     1    1
     8     1     2    1
     9     2     3    1
    10     1    11    1
    11    11    12    1
    12    12    13    2
    13    13    14    1
    14    14    15    1
    15    15    16   ar
    16    16    17   ar
    17    17    18   ar
    18    18    19   ar
    19    19    20   ar
    20    20    15   ar
@<TRIPOS>MOLECULE
*****
 20 20 0 0 0
SMALL
GASTEIGER

@<TRIPOS>ATOM
      1 N         141.1070  143.7736  163.3434 N.3     1  UNL1       -0.2690
      2 C         141.7563  145.0783  163.6986 C.3     1  UNL1        0.0724
      3 C         143.2367  145.1403  163.9321 C.3     1  UNL1        0.0188
      4 C         141.9246  142.5169  163.2979 C.3     1  UNL1        0.0724
      5 C         141.4401  141.2812  163.9967 C.3     1  UNL1        0.0173
      6 C         141.5144  141.1872  165.4919 C.3     1  UNL1        0.0014
      7 C         140.9496  142.2869  166.3415 C.3     1  UNL1        0.0000
      8 C         140.4541  141.9865  167.7251 C.3     1  UNL1        0.0000
      9 C         139.8555  140.2389  169.5520 C.3     1  UNL1        0.0000
     10 C         140.5483  140.5919  168.2692 C.3     1  UNL1        0.0000
     11 C         139.6401  143.7257  163.0337 C.3     1  UNL1        0.0986
     12 C         138.6360  143.8028  164.1453 C.2     1  UNL1       -0.0130
     13 C         137.6631  142.6807  164.3563 C.2     1  UNL1       -0.0246
     14 C         137.6944  141.4815  163.4558 C.3     1  UNL1        0.0520
     15 C         138.1114  140.1467  163.9985 C.ar    1  UNL1       -0.0178
     16 C         138.5691  139.0668  163.0635 C.ar    1  UNL1       -0.0039
     17 C         138.9861  137.7320  163.6061 C.ar    1  UNL1       -0.0003
     18 C         138.9455  137.4772  165.0837 C.ar    1  UNL1       -0.0000
     19 C         138.4878  138.5571  166.0187 C.ar    1  UNL1       -0.0003
     20 C         138.0708  139.8919  165.4761 C.ar    1  UNL1       -0.0039
@<TRIPOS>BOND
     1     9    10    1
     2    10     8    1
     3     8     7    1
     4     7     6    1
     5     6     5    1
     6     5     4    1
     7     4     1    1
     8     1     2    1
     9     2     3    1
    10     1    11    1
    11    11    12    1
    12    12    13    2
    13    13    14    1
    14    14    15    1
    15    15    16   ar
    16    16    17   ar
    17    17    18   ar
    18    18    19   ar
    19    19    20   ar
    20    20    15   ar
@<TRIPOS>MOLECULE
*****
 20 20 0 0 0
SMALL
GASTEIGER

@<TRIPOS>ATOM
      1 N         142.9929  141.5245  164.0065 N.3     1  UNL1       -0.2690
      2 C         143.9041  142.7143  163.9431 C.3     1  UNL1        0.0724
      3 C         144.5519  143.2303  165.1937 C.3     1  UNL1        0.0188
      4 C         141.5056  141.7184  164.0137 C.3     1  UNL1        0.0724
      5 C         140.8815  142.6976  164.9632 C.3     1  UNL1        0.0173
      6 C         139.5156  142.4325  165.5237 C.3     1  UNL1        0.0014
      7 C         138.5601  141.5450  164.7824 C.3     1  UNL1        0.0000
      8 C         138.2884  140.1557  165.2783 C.3     1  UNL1        0.0000
      9 C         138.8672  137.6242  165.1968 C.3     1  UNL1        0.0000
     10 C         138.8477  138.9740  164.5429 C.3     1  UNL1        0.0000
     11 C         143.5691  140.1407  164.0627 C.3     1  UNL1        0.0986
     12 C         142.6742  138.9656  164.3238 C.2     1  UNL1       -0.0130
     13 C         142.3534  138.5657  165.7334 C.2     1  UNL1       -0.0246
     14 C         142.9276  139.3409  166.8820 C.3     1  UNL1        0.0520
     15 C         142.0568  140.2798  167.6632 C.ar    1  UNL1       -0.0178
     16 C         140.6587  139.8774  168.0285 C.ar    1  UNL1       -0.0039
     17 C         139.7879  140.8163  168.8096 C.ar    1  UNL1       -0.0003
     18 C         140.3152  142.1576  169.2255 C.ar    1  UNL1       -0.0000
     19 C         141.7133  142.5599  168.8602 C.ar    1  UNL1       -0.0003
     20 C         142.5841  141.6210  168.0790 C.ar    1  UNL1       -0.0039
@<TRIPOS>BOND
     1     9    10    1
     2    10     8    1
     3     8     7    1
     4     7     6    1
     5     6     5    1
     6     5     4    1
     7     4     1    1
     8     1     2    1
     9     2     3    1
    10     1    11    1
    11    11    12    1
    12    12    13    2
    13    13    14    1
    14    14    15    1
    15    15    16   ar
    16    16    17   ar
    17    17    18   ar
    18    18    19   ar
    19    19    20   ar
    20    20    15   ar
@<TRIPOS>MOLECULE
*****
 20 20 0 0 0
SMALL
GASTEIGER

@<TRIPOS>ATOM
      1 N         140.7561  144.0922  162.7144 N.3     1  UNL1       -0.2690
      2 C         141.5241  145.2348  163.3098 C.3     1  UNL1        0.0724
      3 C         142.9223  145.0197  163.8087 C.3     1  UNL1        0.0188
      4 C         141.4878  142.9410  162.0905 C.3     1  UNL1        0.0724
      5 C         141.3994  141.5750  162.7039 C.3     1  UNL1        0.0173
      6 C         141.6282  141.3977  164.1758 C.3     1  UNL1        0.0014
      7 C         142.2299  140.1248  164.6932 C.3     1  UNL1        0.0000
      8 C         143.6703  140.0916  165.1105 C.3     1  UNL1        0.0000
      9 C         145.4533  141.5397  163.8964 C.3     1  UNL1        0.0000
     10 C         144.7527  140.2261  164.0808 C.3     1  UNL1        0.0000
     11 C         139.2564  144.1008  162.7430 C.3     1  UNL1        0.0986
     12 C         138.5310  144.0636  164.0553 C.2     1  UNL1       -0.0130
     13 C         137.7424  142.8477  164.4422 C.2     1  UNL1       -0.0246
     14 C         137.6792  141.6690  163.5168 C.3     1  UNL1        0.0520
     15 C         138.1251  140.3178  163.9917 C.ar    1  UNL1       -0.0178
     16 C         138.2738  140.0504  165.4601 C.ar    1  UNL1       -0.0039
     17 C         138.7197  138.6992  165.9350 C.ar    1  UNL1       -0.0003
     18 C         139.0168  137.6154  164.9415 C.ar    1  UNL1       -0.0000
     19 C         138.8680  137.8828  163.4731 C.ar    1  UNL1       -0.0003
     20 C         138.4221  139.2340  162.9982 C.ar    1  UNL1       -0.0039
@<TRIPOS>BOND
     1     9    10    1
     2    10     8    1
     3     8     7    1
     4     7     6    1
     5     6     5    1
     6     5     4    1
     7     4     1    1
     8     1     2    1
     9     2     3    1
    10     1    11    1
    11    11    12    1
    12    12    13    2
    13    13    14    1
    14    14    15    1
    15    15    16   ar
    16    16    17   ar
    17    17    18   ar
    18    18    19   ar
    19    19    20   ar
    20    20    15   ar
@<TRIPOS>MOLECULE
*****
 20 20 0 0 0
SMALL
GASTEIGER

@<TRIPOS>ATOM
      1 N         141.4537  144.1155  162.4468 N.3     1  UNL1       -0.2690
      2 C         140.5956  144.8910  161.4917 C.3     1  UNL1        0.0724
      3 C         139.9288  146.1573  161.9410 C.3     1  UNL1        0.0188
      4 C         141.4973  142.6182  162.3696 C.3     1  UNL1        0.0724
      5 C         140.2972  141.8114  162.7682 C.3     1  UNL1        0.0173
      6 C         140.2593  141.1344  164.1063 C.3     1  UNL1        0.0014
      7 C         139.4471  141.7227  165.2217 C.3     1  UNL1        0.0000
      8 C         139.8155  143.0595  165.7935 C.3     1  UNL1        0.0000
      9 C         137.8826  144.1957  164.4808 C.3     1  UNL1        0.0000
     10 C         139.1391  144.3014  165.2934 C.3     1  UNL1        0.0000
     11 C         142.2682  144.8374  163.4790 C.3     1  UNL1        0.0986
     12 C         143.7495  144.6142  163.5561 C.2     1  UNL1       -0.0130
     13 C         144.3197  143.7269  164.6227 C.2     1  UNL1       -0.0246
     14 C         143.4087  143.0629  165.6121 C.3     1  UNL1        0.0520
     15 C         143.3865  141.5673  165.7249 C.ar    1  UNL1       -0.0178
     16 C         144.0145  140.7250  164.6544 C.ar    1  UNL1       -0.0039
     17 C         143.9922  139.2294  164.7672 C.ar    1  UNL1       -0.0003
     18 C         143.3419  138.5761  165.9505 C.ar    1  UNL1       -0.0000
     19 C         142.7139  139.4184  167.0210 C.ar    1  UNL1       -0.0003
     20 C         142.7361  140.9140  166.9082 C.ar    1  UNL1       -0.0039
@<TRIPOS>BOND
     1     9    10    1
     2    10     8    1
     3     8     7    1
     4     7     6    1
     5     6     5    1
     6     5     4    1
     7     4     1    1
     8     1     2    1
     9     2     3    1
    10     1    11    1
    11    11    12    1
    12    12    13    2
    13    13    14    1
    14    14    15    1
    15    15    16   ar
    16    16    17   ar
    17    17    18   ar
    18    18    19   ar
    19    19    20   ar
    20    20    15   ar
@<TRIPOS>MOLECULE
*****
 20 20 0 0 0
SMALL
GASTEIGER

@<TRIPOS>ATOM
      1 N         142.3657  143.2100  163.6552 N.3     1  UNL1       -0.2690
      2 C         141.9988  142.6756  162.3025 C.3     1  UNL1        0.0724
      3 C         141.9445  141.1946  162.0706 C.3     1  UNL1        0.0188
      4 C         141.7091  144.4553  164.1729 C.3     1  UNL1        0.0724
      5 C         140.2350  144.4661  164.4502 C.3     1  UNL1        0.0173
      6 C         139.6367  143.4408  165.3673 C.3     1  UNL1        0.0014
      7 C         138.5114  142.5721  164.8886 C.3     1  UNL1        0.0000
      8 C         138.7154  141.6587  163.7165 C.3     1  UNL1        0.0000
      9 C         137.9506  139.6070  162.3180 C.3     1  UNL1        0.0000
     10 C         137.6699  140.6411  163.3677 C.3     1  UNL1        0.0000
     11 C         143.3892  142.4991  164.4901 C.3     1  UNL1        0.0986
     12 C         143.1892  142.3679  165.9709 C.2     1  UNL1       -0.0130
     13 C         142.4952  141.1614  166.5301 C.2     1  UNL1       -0.0246
     14 C         142.0010  140.0861  165.6084 C.3     1  UNL1        0.0520
     15 C         140.6728  139.4357  165.8588 C.ar    1  UNL1       -0.0178
     16 C         140.2336  138.2773  165.0131 C.ar    1  UNL1       -0.0039
     17 C         138.9054  137.6269  165.2635 C.ar    1  UNL1       -0.0003
     18 C         138.0162  138.1349  166.3595 C.ar    1  UNL1       -0.0000
     19 C         138.4553  139.2933  167.2051 C.ar    1  UNL1       -0.0003
     20 C         139.7836  139.9437  166.9548 C.ar    1  UNL1       -0.0039
@<TRIPOS>BOND
     1     9    10    1
     2    10     8    1
     3     8     7    1
     4     7     6    1
     5     6     5    1
     6     5     4    1
     7     4     1    1
     8     1     2    1
     9     2     3    1
    10     1    11    1
    11    11    12    1
    12    12    13    2
    13    13    14    1
    14    14    15    1
    15    15    16   ar
    16    16    17   ar
    17    17    18   ar
    18    18    19   ar
    19    19    20   ar
    20    20    15   ar
