@<TRIPOS>MOLECULE
*****
 38 41 0 0 0
SMALL
GASTEIGER

@<TRIPOS>ATOM
      1 C         139.9756  140.0192  167.8600 C.ar    1  UNL1        0.1383
      2 N         138.7170  139.4208  168.4149 N.ar    1  UNL1       -0.2088
      3 C         138.2500  139.7980  169.7895 C.ar    1  UNL1        0.2000
      4 N         139.0416  140.7735  170.6092 N.ar    1  UNL1       -0.2238
      5 C         140.3001  141.3718  170.0542 C.ar    1  UNL1        0.0887
      6 C         141.0916  142.3474  170.8739 C.ar    1  UNL1        0.0195
      7 C         142.3501  142.9457  170.3190 C.ar    1  UNL1        0.0047
      8 C         142.8172  142.5686  168.9443 C.ar    1  UNL1        0.0371
      9 C         142.0257  141.5931  168.1246 C.ar    1  UNL1        0.1432
     10 C         140.7671  140.9947  168.6796 C.ar    1  UNL1        0.0833
     11 N         140.4427  139.6420  166.4853 N.pl3   1  UNL1       -0.2978
     12 H         141.2101  139.0352  166.3754 H       1  UNL1        0.1536
     13 C         138.3361  141.2844  162.8638 C.ar    1  UNL1        0.1414
     14 C         139.1729  140.0449  162.7469 C.ar    1  UNL1        0.0384
     15 C         139.8751  139.4975  163.9541 C.ar    1  UNL1        0.0178
     16 C         139.7405  140.1895  165.2781 C.ar    1  UNL1        0.0492
     17 C         138.9037  141.4289  165.3950 C.ar    1  UNL1        0.0134
     18 C         138.2015  141.9763  164.1878 C.ar    1  UNL1        0.0139
     19 C         137.3647  143.2158  164.3048 C.3     1  UNL1        0.0343
     20 O         137.6339  141.8318  161.6567 O.3     1  UNL1       -0.4522
     21 C         140.6918  145.0180  157.5950 C.3     1  UNL1        0.0521
     22 C         139.9273  144.2214  158.6104 C.ar    1  UNL1        0.0596
     23 C         139.1387  143.0196  158.1818 C.ar    1  UNL1        0.0179
     24 C         138.3742  142.2231  159.1972 C.ar    1  UNL1        0.0403
     25 C         138.3983  142.6284  160.6413 C.ar    1  UNL1        0.1643
     26 C         139.1869  143.8302  161.0698 C.ar    1  UNL1        0.1358
     27 N         139.9514  144.6268  160.0543 N.ar    1  UNL1       -0.2449
     28 O         142.4927  141.2159  166.7500 O.3     1  UNL1       -0.4698
     29 C         142.7235  142.2799  165.7181 C.3     1  UNL1        0.2413
     30 C         141.5974  143.1799  165.3039 C.3     1  UNL1        0.0574
     31 C         144.0806  142.4437  165.1004 C.2     1  UNL1        0.2660
     32 O         144.9370  143.6179  165.4719 O.2     1  UNL1       -0.2710
     33 N         144.5813  141.4334  164.1111 N.am    1  UNL1       -0.2723
     34 C         145.9383  141.5972  163.4934 C.3     1  UNL1        0.1150
     35 C         143.7249  140.2593  163.7396 C.3     1  UNL1        0.1252
     36 C         143.9138  138.9434  164.4346 C.3     1  UNL1        0.1586
     37 O         142.9091  138.4788  165.4468 O.3     1  UNL1       -0.3802
     38 H         142.9256  139.0716  166.2144 H       1  UNL1        0.2105
@<TRIPOS>BOND
     1    21    22    1
     2    22    23   ar
     3    23    24   ar
     4    24    25   ar
     5    25    20    1
     6    20    13    1
     7    13    14   ar
     8    14    15   ar
     9    15    16   ar
    10    16    11    1
    11    11     1    1
    12     1     2   ar
    13     2     3   ar
    14     3     4   ar
    15     4     5   ar
    16     5     6   ar
    17     6     7   ar
    18     7     8   ar
    19     8     9   ar
    20     9    28    1
    21    28    29    1
    22    29    30    1
    23    29    31    1
    24    31    32    2
    25    31    33   am
    26    33    34    1
    27    33    35    1
    28    35    36    1
    29    36    37    1
    30     9    10   ar
    31    16    17   ar
    32    17    18   ar
    33    18    19    1
    34    25    26   ar
    35    26    27   ar
    36    27    22   ar
    37    18    13   ar
    38    10     1   ar
    39    10     5   ar
    40    11    12    1
    41    37    38    1
@<TRIPOS>MOLECULE
*****
 38 41 0 0 0
SMALL
GASTEIGER

@<TRIPOS>ATOM
      1 C         140.7030  140.8659  167.9348 C.ar    1  UNL1        0.1383
      2 N         140.4299  141.4362  169.2950 N.ar    1  UNL1       -0.2088
      3 C         139.2259  140.9870  170.0686 C.ar    1  UNL1        0.2000
      4 N         138.2950  139.9675  169.4820 N.ar    1  UNL1       -0.2238
      5 C         138.5681  139.3972  168.1218 C.ar    1  UNL1        0.0887
      6 C         137.6372  138.3778  167.5352 C.ar    1  UNL1        0.0195
      7 C         137.9103  137.8075  166.1751 C.ar    1  UNL1        0.0047
      8 C         139.1144  138.2567  165.4014 C.ar    1  UNL1        0.0371
      9 C         140.0453  139.2762  165.9879 C.ar    1  UNL1        0.1432
     10 C         139.7721  139.8464  167.3482 C.ar    1  UNL1        0.0833
     11 N         141.9071  141.3151  167.1611 N.pl3   1  UNL1       -0.2978
     12 H         142.7848  140.9040  167.3339 H       1  UNL1        0.1536
     13 C         141.5073  144.5421  164.0503 C.ar    1  UNL1        0.1414
     14 C         140.2888  144.0270  164.7575 C.ar    1  UNL1        0.0384
     15 C         140.4221  142.9514  165.7945 C.ar    1  UNL1        0.0178
     16 C         141.7738  142.3908  166.1242 C.ar    1  UNL1        0.0492
     17 C         142.9922  142.9058  165.4169 C.ar    1  UNL1        0.0134
     18 C         142.8589  143.9815  164.3800 C.ar    1  UNL1        0.0139
     19 C         144.0774  144.4965  163.6728 C.3     1  UNL1        0.0343
     20 O         141.3740  145.6177  163.0134 O.3     1  UNL1       -0.4522
     21 C         140.2124  144.1596  157.3104 C.3     1  UNL1        0.0521
     22 C         140.5028  144.5241  158.7361 C.ar    1  UNL1        0.0596
     23 C         141.5697  143.7922  159.4950 C.ar    1  UNL1        0.0179
     24 C         141.8602  144.1567  160.9207 C.ar    1  UNL1        0.0403
     25 C         141.0836  145.2532  161.5876 C.ar    1  UNL1        0.1643
     26 C         140.0166  145.9851  160.8288 C.ar    1  UNL1        0.1358
     27 N         139.7263  145.6206  159.4030 N.ar    1  UNL1       -0.2449
     28 O         141.2493  139.7254  165.2143 O.3     1  UNL1       -0.4698
     29 C         142.3160  138.7370  164.8463 C.3     1  UNL1        0.2413
     30 C         143.2235  138.1841  165.9049 C.3     1  UNL1        0.0574
     31 C         142.4751  138.3017  163.4198 C.2     1  UNL1        0.2660
     32 O         141.5328  137.2922  162.8341 O.2     1  UNL1       -0.2710
     33 N         143.5766  138.8758  162.5788 N.am    1  UNL1       -0.2723
     34 C         143.7357  138.4405  161.1523 C.3     1  UNL1        0.1150
     35 C         144.5189  139.8852  163.1645 C.3     1  UNL1        0.1252
     36 C         144.8925  141.1070  162.3785 C.3     1  UNL1        0.1586
     37 O         146.1104  141.8975  162.7549 O.3     1  UNL1       -0.3802
     38 H         145.9777  142.3001  163.6274 H       1  UNL1        0.2105
@<TRIPOS>BOND
     1    21    22    1
     2    22    23   ar
     3    23    24   ar
     4    24    25   ar
     5    25    20    1
     6    20    13    1
     7    13    14   ar
     8    14    15   ar
     9    15    16   ar
    10    16    11    1
    11    11     1    1
    12     1     2   ar
    13     2     3   ar
    14     3     4   ar
    15     4     5   ar
    16     5     6   ar
    17     6     7   ar
    18     7     8   ar
    19     8     9   ar
    20     9    28    1
    21    28    29    1
    22    29    30    1
    23    29    31    1
    24    31    32    2
    25    31    33   am
    26    33    34    1
    27    33    35    1
    28    35    36    1
    29    36    37    1
    30     9    10   ar
    31    16    17   ar
    32    17    18   ar
    33    18    19    1
    34    25    26   ar
    35    26    27   ar
    36    27    22   ar
    37    18    13   ar
    38    10     1   ar
    39    10     5   ar
    40    11    12    1
    41    37    38    1
@<TRIPOS>MOLECULE
*****
 38 41 0 0 0
SMALL
GASTEIGER

@<TRIPOS>ATOM
      1 C         139.6281  139.8324  167.7624 C.ar    1  UNL1        0.1383
      2 N         138.5279  139.6525  168.7659 N.ar    1  UNL1       -0.2088
      3 C         138.6213  140.3152  170.1082 C.ar    1  UNL1        0.2000
      4 N         139.8151  141.1579  170.4472 N.ar    1  UNL1       -0.2238
      5 C         140.9153  141.3378  169.4437 C.ar    1  UNL1        0.0887
      6 C         142.1091  142.1805  169.7826 C.ar    1  UNL1        0.0195
      7 C         143.2094  142.3605  168.7792 C.ar    1  UNL1        0.0047
      8 C         143.1159  141.6977  167.4367 C.ar    1  UNL1        0.0371
      9 C         141.9222  140.8550  167.0978 C.ar    1  UNL1        0.1432
     10 C         140.8219  140.6751  168.1014 C.ar    1  UNL1        0.0833
     11 N         139.5347  139.1697  166.4200 N.pl3   1  UNL1       -0.2978
     12 H         139.8053  138.2289  166.3156 H       1  UNL1        0.1536
     13 C         138.0177  141.4819  162.8700 C.ar    1  UNL1        0.1414
     14 C         138.3778  140.0331  162.7232 C.ar    1  UNL1        0.0384
     15 C         138.8835  139.2624  163.9065 C.ar    1  UNL1        0.0178
     16 C         139.0291  139.9404  165.2366 C.ar    1  UNL1        0.0492
     17 C         138.6690  141.3891  165.3834 C.ar    1  UNL1        0.0134
     18 C         138.1633  142.1599  164.2001 C.ar    1  UNL1        0.0139
     19 C         137.8033  143.6086  164.3469 C.3     1  UNL1        0.0343
     20 O         137.5121  142.2526  161.6867 O.3     1  UNL1       -0.4522
     21 C         141.3783  144.4149  157.6399 C.3     1  UNL1        0.0521
     22 C         140.4118  143.8743  158.6516 C.ar    1  UNL1        0.0596
     23 C         139.3414  142.9130  158.2273 C.ar    1  UNL1        0.0179
     24 C         138.3748  142.3725  159.2389 C.ar    1  UNL1        0.0403
     25 C         138.4786  142.7932  160.6750 C.ar    1  UNL1        0.1643
     26 C         139.5491  143.7545  161.0993 C.ar    1  UNL1        0.1358
     27 N         140.5156  144.2951  160.0876 N.ar    1  UNL1       -0.2449
     28 O         141.8287  140.1923  165.7554 O.3     1  UNL1       -0.4698
     29 C         142.7615  139.0706  165.4062 C.3     1  UNL1        0.2413
     30 C         143.4985  138.3427  166.4911 C.3     1  UNL1        0.0574
     31 C         142.9571  138.6768  163.9721 C.2     1  UNL1        0.2660
     32 O         142.0800  137.6273  163.3562 O.2     1  UNL1       -0.2710
     33 N         144.0297  139.3326  163.1539 N.am    1  UNL1       -0.2723
     34 C         144.2253  138.9388  161.7198 C.3     1  UNL1        0.1150
     35 C         144.9066  140.3821  163.7698 C.3     1  UNL1        0.1252
     36 C         144.5171  141.8283  163.6867 C.3     1  UNL1        0.1586
     37 O         143.0854  142.2317  163.8800 O.3     1  UNL1       -0.3802
     38 H         142.5487  141.8771  163.1540 H       1  UNL1        0.2105
@<TRIPOS>BOND
     1    21    22    1
     2    22    23   ar
     3    23    24   ar
     4    24    25   ar
     5    25    20    1
     6    20    13    1
     7    13    14   ar
     8    14    15   ar
     9    15    16   ar
    10    16    11    1
    11    11     1    1
    12     1     2   ar
    13     2     3   ar
    14     3     4   ar
    15     4     5   ar
    16     5     6   ar
    17     6     7   ar
    18     7     8   ar
    19     8     9   ar
    20     9    28    1
    21    28    29    1
    22    29    30    1
    23    29    31    1
    24    31    32    2
    25    31    33   am
    26    33    34    1
    27    33    35    1
    28    35    36    1
    29    36    37    1
    30     9    10   ar
    31    16    17   ar
    32    17    18   ar
    33    18    19    1
    34    25    26   ar
    35    26    27   ar
    36    27    22   ar
    37    18    13   ar
    38    10     1   ar
    39    10     5   ar
    40    11    12    1
    41    37    38    1
@<TRIPOS>MOLECULE
*****
 38 41 0 0 0
SMALL
GASTEIGER

@<TRIPOS>ATOM
      1 C         140.4143  140.1577  167.9528 C.ar    1  UNL1        0.1383
      2 N         139.1306  139.6498  168.5394 N.ar    1  UNL1       -0.2088
      3 C         138.7228  140.0630  169.9225 C.ar    1  UNL1        0.2000
      4 N         139.5987  140.9840  170.7190 N.ar    1  UNL1       -0.2238
      5 C         140.8824  141.4919  170.1324 C.ar    1  UNL1        0.0887
      6 C         141.7583  142.4129  170.9289 C.ar    1  UNL1        0.0195
      7 C         143.0421  142.9208  170.3424 C.ar    1  UNL1        0.0047
      8 C         143.4499  142.5076  168.9592 C.ar    1  UNL1        0.0371
      9 C         142.5740  141.5866  168.1627 C.ar    1  UNL1        0.1432
     10 C         141.2902  141.0787  168.7494 C.ar    1  UNL1        0.0833
     11 N         140.8222  139.7445  166.5697 N.pl3   1  UNL1       -0.2978
     12 H         141.6717  139.2673  166.4289 H       1  UNL1        0.1536
     13 C         138.1625  140.6860  163.0640 C.ar    1  UNL1        0.1414
     14 C         138.8685  139.3644  163.1362 C.ar    1  UNL1        0.0384
     15 C         139.7551  139.0506  164.3047 C.ar    1  UNL1        0.0178
     16 C         139.9356  140.0583  165.4011 C.ar    1  UNL1        0.0492
     17 C         139.2295  141.3797  165.3290 C.ar    1  UNL1        0.0134
     18 C         138.3430  141.6936  164.1604 C.ar    1  UNL1        0.0139
     19 C         137.6369  143.0151  164.0883 C.3     1  UNL1        0.0343
     20 O         137.2759  140.9998  161.8955 O.3     1  UNL1       -0.4522
     21 C         139.6830  142.0561  156.5020 C.3     1  UNL1        0.0521
     22 C         139.0812  141.7920  157.8504 C.ar    1  UNL1        0.0596
     23 C         139.2324  142.8011  158.9498 C.ar    1  UNL1        0.0179
     24 C         138.6307  142.5371  160.2982 C.ar    1  UNL1        0.0403
     25 C         137.8776  141.2639  160.5471 C.ar    1  UNL1        0.1643
     26 C         137.7264  140.2547  159.4477 C.ar    1  UNL1        0.1358
     27 N         138.3282  140.5189  158.0993 N.ar    1  UNL1       -0.2449
     28 O         142.9818  141.1734  166.7797 O.3     1  UNL1       -0.4698
     29 C         143.3227  142.2151  165.7555 C.3     1  UNL1        0.2413
     30 C         144.4766  143.1450  165.9869 C.3     1  UNL1        0.0574
     31 C         142.5095  142.3268  164.5000 C.2     1  UNL1        0.2660
     32 O         141.5366  143.4565  164.3346 O.2     1  UNL1       -0.2710
     33 N         142.6692  141.3089  163.4100 N.am    1  UNL1       -0.2723
     34 C         141.8560  141.4206  162.1545 C.3     1  UNL1        0.1150
     35 C         143.6420  140.1792  163.5754 C.3     1  UNL1        0.1252
     36 C         143.4217  138.8868  162.8465 C.3     1  UNL1        0.1586
     37 O         144.4748  138.3612  161.9166 O.3     1  UNL1       -0.3802
     38 H         144.5662  138.9609  161.1597 H       1  UNL1        0.2105
@<TRIPOS>BOND
     1    21    22    1
     2    22    23   ar
     3    23    24   ar
     4    24    25   ar
     5    25    20    1
     6    20    13    1
     7    13    14   ar
     8    14    15   ar
     9    15    16   ar
    10    16    11    1
    11    11     1    1
    12     1     2   ar
    13     2     3   ar
    14     3     4   ar
    15     4     5   ar
    16     5     6   ar
    17     6     7   ar
    18     7     8   ar
    19     8     9   ar
    20     9    28    1
    21    28    29    1
    22    29    30    1
    23    29    31    1
    24    31    32    2
    25    31    33   am
    26    33    34    1
    27    33    35    1
    28    35    36    1
    29    36    37    1
    30     9    10   ar
    31    16    17   ar
    32    17    18   ar
    33    18    19    1
    34    25    26   ar
    35    26    27   ar
    36    27    22   ar
    37    18    13   ar
    38    10     1   ar
    39    10     5   ar
    40    11    12    1
    41    37    38    1
@<TRIPOS>MOLECULE
*****
 38 41 0 0 0
SMALL
GASTEIGER

@<TRIPOS>ATOM
      1 C         142.6320  140.6588  165.1179 C.ar    1  UNL1        0.1383
      2 N         143.4645  139.4145  165.0251 N.ar    1  UNL1       -0.2088
      3 C         143.6673  138.5556  166.2379 C.ar    1  UNL1        0.2000
      4 N         143.0376  138.9410  167.5437 N.ar    1  UNL1       -0.2238
      5 C         142.2051  140.1853  167.6366 C.ar    1  UNL1        0.0887
      6 C         141.5754  140.5707  168.9423 C.ar    1  UNL1        0.0195
      7 C         140.7430  141.8150  169.0352 C.ar    1  UNL1        0.0047
      8 C         140.5401  142.6739  167.8223 C.ar    1  UNL1        0.0371
      9 C         141.1698  142.2886  166.5165 C.ar    1  UNL1        0.1432
     10 C         142.0023  141.0442  166.4237 C.ar    1  UNL1        0.0833
     11 N         142.4292  141.5178  163.9050 N.pl3   1  UNL1       -0.2978
     12 H         142.7292  142.4554  163.9101 H       1  UNL1        0.1536
     13 C         140.4492  139.8087  160.2432 C.ar    1  UNL1        0.1414
     14 C         141.4191  140.9452  160.1100 C.ar    1  UNL1        0.0384
     15 C         142.0791  141.5149  161.3306 C.ar    1  UNL1        0.0178
     16 C         141.7692  140.9481  162.6844 C.ar    1  UNL1        0.0492
     17 C         140.7993  139.8116  162.8176 C.ar    1  UNL1        0.0134
     18 C         140.1393  139.2419  161.5970 C.ar    1  UNL1        0.0139
     19 C         139.1694  138.1054  161.7302 C.3     1  UNL1        0.0343
     20 O         139.7892  139.2390  159.0226 O.3     1  UNL1       -0.4522
     21 C         142.8290  135.5182  155.4289 C.3     1  UNL1        0.0521
     22 C         142.0691  136.4484  156.3273 C.ar    1  UNL1        0.0596
     23 C         142.7554  137.0882  157.4977 C.ar    1  UNL1        0.0179
     24 C         141.9955  138.0183  158.3961 C.ar    1  UNL1        0.0403
     25 C         140.5492  138.3088  158.1242 C.ar    1  UNL1        0.1643
     26 C         139.8628  137.6691  156.9539 C.ar    1  UNL1        0.1358
     27 N         140.6229  136.7388  156.0554 N.ar    1  UNL1       -0.2449
     28 O         140.9670  143.1475  165.3036 O.3     1  UNL1       -0.4698
     29 C         139.5879  143.6043  164.9302 C.3     1  UNL1        0.2413
     30 C         139.0001  144.8225  165.5786 C.3     1  UNL1        0.0574
     31 C         138.7967  142.8430  163.9083 C.2     1  UNL1        0.2660
     32 O         137.8526  141.7617  164.3439 O.2     1  UNL1       -0.2710
     33 N         138.9494  143.1628  162.4508 N.am    1  UNL1       -0.2723
     34 C         138.1582  142.4015  161.4289 C.3     1  UNL1        0.1150
     35 C         139.8934  144.2441  162.0152 C.3     1  UNL1        0.1252
     36 C         139.4267  145.6684  161.9564 C.3     1  UNL1        0.1586
     37 O         140.3305  146.7735  162.4167 O.3     1  UNL1       -0.3802
     38 H         140.4813  146.6914  163.3713 H       1  UNL1        0.2105
@<TRIPOS>BOND
     1    21    22    1
     2    22    23   ar
     3    23    24   ar
     4    24    25   ar
     5    25    20    1
     6    20    13    1
     7    13    14   ar
     8    14    15   ar
     9    15    16   ar
    10    16    11    1
    11    11     1    1
    12     1     2   ar
    13     2     3   ar
    14     3     4   ar
    15     4     5   ar
    16     5     6   ar
    17     6     7   ar
    18     7     8   ar
    19     8     9   ar
    20     9    28    1
    21    28    29    1
    22    29    30    1
    23    29    31    1
    24    31    32    2
    25    31    33   am
    26    33    34    1
    27    33    35    1
    28    35    36    1
    29    36    37    1
    30     9    10   ar
    31    16    17   ar
    32    17    18   ar
    33    18    19    1
    34    25    26   ar
    35    26    27   ar
    36    27    22   ar
    37    18    13   ar
    38    10     1   ar
    39    10     5   ar
    40    11    12    1
    41    37    38    1
@<TRIPOS>MOLECULE
*****
 38 41 0 0 0
SMALL
GASTEIGER

@<TRIPOS>ATOM
      1 C         140.7862  139.8422  163.6801 C.ar    1  UNL1        0.1383
      2 N         140.6738  139.0279  162.4254 N.ar    1  UNL1       -0.2088
      3 C         139.7042  137.8856  162.3571 C.ar    1  UNL1        0.2000
      4 N         138.8469  137.5575  163.5434 N.ar    1  UNL1       -0.2238
      5 C         138.9592  138.3717  164.7981 C.ar    1  UNL1        0.0887
      6 C         138.1019  138.0436  165.9844 C.ar    1  UNL1        0.0195
      7 C         138.2143  138.8579  167.2391 C.ar    1  UNL1        0.0047
      8 C         139.1840  140.0003  167.3075 C.ar    1  UNL1        0.0371
      9 C         140.0413  140.3284  166.1212 C.ar    1  UNL1        0.1432
     10 C         139.9289  139.5141  164.8665 C.ar    1  UNL1        0.0833
     11 N         141.7559  140.9846  163.7486 N.pl3   1  UNL1       -0.2978
     12 H         142.3727  141.0617  164.5120 H       1  UNL1        0.1536
     13 C         141.8455  144.0595  160.4642 C.ar    1  UNL1        0.1414
     14 C         142.7069  142.8351  160.3690 C.ar    1  UNL1        0.0384
     15 C         142.6770  141.8102  161.4638 C.ar    1  UNL1        0.0178
     16 C         141.7858  142.0096  162.6538 C.ar    1  UNL1        0.0492
     17 C         140.9244  143.2339  162.7489 C.ar    1  UNL1        0.0134
     18 C         140.9543  144.2588  161.6541 C.ar    1  UNL1        0.0139
     19 C         140.0929  145.4832  161.7493 C.3     1  UNL1        0.0343
     20 O         141.8753  145.0845  159.3694 O.3     1  UNL1       -0.4522
     21 C         137.9340  144.7694  154.8566 C.3     1  UNL1        0.0521
     22 C         138.9193  144.8482  155.9848 C.ar    1  UNL1        0.0596
     23 C         139.0815  143.6877  156.9213 C.ar    1  UNL1        0.0179
     24 C         140.0668  143.7665  158.0495 C.ar    1  UNL1        0.0403
     25 C         140.8900  145.0057  158.2412 C.ar    1  UNL1        0.1643
     26 C         140.7278  146.1662  157.3047 C.ar    1  UNL1        0.1358
     27 N         139.7424  146.0874  156.1765 N.ar    1  UNL1       -0.2449
     28 O         141.0110  141.4708  166.1896 O.3     1  UNL1       -0.4698
     29 C         142.3109  141.3084  166.9203 C.3     1  UNL1        0.2413
     30 C         143.3388  142.3998  166.8738 C.3     1  UNL1        0.0574
     31 C         142.5829  140.0547  167.6976 C.2     1  UNL1        0.2660
     32 O         143.1667  138.8569  167.0086 O.2     1  UNL1       -0.2710
     33 N         142.2710  139.9987  169.1637 N.am    1  UNL1       -0.2723
     34 C         142.5430  138.7449  169.9410 C.3     1  UNL1        0.1150
     35 C         141.6872  141.1964  169.8526 C.3     1  UNL1        0.1252
     36 C         141.1490  141.0713  171.2471 C.3     1  UNL1        0.1586
     37 O         140.5189  142.2563  171.9170 O.3     1  UNL1       -0.3802
     38 H         141.1909  142.9403  172.0631 H       1  UNL1        0.2105
@<TRIPOS>BOND
     1    21    22    1
     2    22    23   ar
     3    23    24   ar
     4    24    25   ar
     5    25    20    1
     6    20    13    1
     7    13    14   ar
     8    14    15   ar
     9    15    16   ar
    10    16    11    1
    11    11     1    1
    12     1     2   ar
    13     2     3   ar
    14     3     4   ar
    15     4     5   ar
    16     5     6   ar
    17     6     7   ar
    18     7     8   ar
    19     8     9   ar
    20     9    28    1
    21    28    29    1
    22    29    30    1
    23    29    31    1
    24    31    32    2
    25    31    33   am
    26    33    34    1
    27    33    35    1
    28    35    36    1
    29    36    37    1
    30     9    10   ar
    31    16    17   ar
    32    17    18   ar
    33    18    19    1
    34    25    26   ar
    35    26    27   ar
    36    27    22   ar
    37    18    13   ar
    38    10     1   ar
    39    10     5   ar
    40    11    12    1
    41    37    38    1
@<TRIPOS>MOLECULE
*****
 38 41 0 0 0
SMALL
GASTEIGER

@<TRIPOS>ATOM
      1 C         142.6736  142.4821  163.7777 C.ar    1  UNL1        0.1383
      2 N         143.7649  143.4083  163.3293 N.ar    1  UNL1       -0.2088
      3 C         143.5164  144.8863  163.2687 C.ar    1  UNL1        0.2000
      4 N         142.1766  145.4381  163.6565 N.ar    1  UNL1       -0.2238
      5 C         141.0853  144.5119  164.1049 C.ar    1  UNL1        0.0887
      6 C         139.7455  145.0637  164.4928 C.ar    1  UNL1        0.0195
      7 C         138.6542  144.1375  164.9412 C.ar    1  UNL1        0.0047
      8 C         138.9027  142.6594  165.0019 C.ar    1  UNL1        0.0371
      9 C         140.2425  142.1076  164.6140 C.ar    1  UNL1        0.1432
     10 C         141.3338  143.0339  164.1656 C.ar    1  UNL1        0.0833
     11 N         142.9221  141.0040  163.8384 N.pl3   1  UNL1       -0.2978
     12 H         143.0294  140.5582  164.7096 H       1  UNL1        0.1536
     13 C         143.1774  138.6077  160.0381 C.ar    1  UNL1        0.1414
     14 C         142.7674  137.9421  161.3183 C.ar    1  UNL1        0.0384
     15 C         142.6823  138.7409  162.5851 C.ar    1  UNL1        0.0178
     16 C         143.0072  140.2052  162.5716 C.ar    1  UNL1        0.0492
     17 C         143.4171  140.8708  161.2914 C.ar    1  UNL1        0.0134
     18 C         143.5022  140.0720  160.0246 C.ar    1  UNL1        0.0139
     19 C         143.9122  140.7376  158.7444 C.3     1  UNL1        0.0343
     20 O         143.2625  137.8089  158.7713 O.3     1  UNL1       -0.4522
     21 C         138.4646  137.3261  155.2010 C.3     1  UNL1        0.0521
     22 C         139.6641  137.4468  156.0936 C.ar    1  UNL1        0.0596
     23 C         140.9369  136.7365  155.7395 C.ar    1  UNL1        0.0179
     24 C         142.1364  136.8572  156.6321 C.ar    1  UNL1        0.0403
     25 C         142.0630  137.6882  157.8787 C.ar    1  UNL1        0.1643
     26 C         140.7902  138.3985  158.2328 C.ar    1  UNL1        0.1358
     27 N         139.5907  138.2778  157.3401 N.ar    1  UNL1       -0.2449
     28 O         140.4910  140.6296  164.6747 O.3     1  UNL1       -0.4698
     29 C         139.3342  139.6757  164.7179 C.3     1  UNL1        0.2413
     30 C         138.4983  139.5662  165.9586 C.3     1  UNL1        0.0574
     31 C         139.0132  138.8313  163.5204 C.2     1  UNL1        0.2660
     32 O         139.5549  137.4361  163.4196 O.2     1  UNL1       -0.2710
     33 N         138.1506  139.3820  162.4238 N.am    1  UNL1       -0.2723
     34 C         137.8296  138.5376  161.2264 C.3     1  UNL1        0.1150
     35 C         137.6089  140.7771  162.5247 C.3     1  UNL1        0.1252
     36 C         138.0352  141.8206  161.5350 C.3     1  UNL1        0.1586
     37 O         137.5552  143.2341  161.6818 O.3     1  UNL1       -0.3802
     38 H         136.5951  143.2651  161.5470 H       1  UNL1        0.2105
@<TRIPOS>BOND
     1    21    22    1
     2    22    23   ar
     3    23    24   ar
     4    24    25   ar
     5    25    20    1
     6    20    13    1
     7    13    14   ar
     8    14    15   ar
     9    15    16   ar
    10    16    11    1
    11    11     1    1
    12     1     2   ar
    13     2     3   ar
    14     3     4   ar
    15     4     5   ar
    16     5     6   ar
    17     6     7   ar
    18     7     8   ar
    19     8     9   ar
    20     9    28    1
    21    28    29    1
    22    29    30    1
    23    29    31    1
    24    31    32    2
    25    31    33   am
    26    33    34    1
    27    33    35    1
    28    35    36    1
    29    36    37    1
    30     9    10   ar
    31    16    17   ar
    32    17    18   ar
    33    18    19    1
    34    25    26   ar
    35    26    27   ar
    36    27    22   ar
    37    18    13   ar
    38    10     1   ar
    39    10     5   ar
    40    11    12    1
    41    37    38    1
@<TRIPOS>MOLECULE
*****
 38 41 0 0 0
SMALL
GASTEIGER

@<TRIPOS>ATOM
      1 C         143.5527  143.2400  158.3751 C.ar    1  UNL1        0.1383
      2 N         144.3845  142.3620  157.4879 N.ar    1  UNL1       -0.2088
      3 C         144.1609  142.3677  156.0047 C.ar    1  UNL1        0.2000
      4 N         143.1056  143.2515  155.4087 N.ar    1  UNL1       -0.2238
      5 C         142.2738  144.1295  156.2959 C.ar    1  UNL1        0.0887
      6 C         141.2185  145.0133  155.6999 C.ar    1  UNL1        0.0195
      7 C         140.3867  145.8913  156.5871 C.ar    1  UNL1        0.0047
      8 C         140.6103  145.8856  158.0704 C.ar    1  UNL1        0.0371
      9 C         141.6656  145.0018  158.6664 C.ar    1  UNL1        0.1432
     10 C         142.4974  144.1237  157.7791 C.ar    1  UNL1        0.0833
     11 N         143.7763  143.2343  159.8584 N.pl3   1  UNL1       -0.2978
     12 H         144.1541  144.0276  160.3023 H       1  UNL1        0.1536
     13 C         142.7202  139.5907  162.2789 C.ar    1  UNL1        0.1414
     14 C         143.6666  140.6126  162.8358 C.ar    1  UNL1        0.0384
     15 C         144.0186  141.8271  162.0289 C.ar    1  UNL1        0.0178
     16 C         143.4243  142.0197  160.6652 C.ar    1  UNL1        0.0492
     17 C         142.4779  140.9978  160.1084 C.ar    1  UNL1        0.0134
     18 C         142.1259  139.7833  160.9152 C.ar    1  UNL1        0.0139
     19 C         141.1795  138.7614  160.3583 C.3     1  UNL1        0.0343
     20 O         142.3682  138.3761  163.0857 O.3     1  UNL1       -0.4522
     21 C         137.7490  138.5510  166.9109 C.3     1  UNL1        0.0521
     22 C         138.9038  138.5073  165.9546 C.ar    1  UNL1        0.0596
     23 C         138.7866  137.7386  164.6719 C.ar    1  UNL1        0.0179
     24 C         139.9414  137.6949  163.7156 C.ar    1  UNL1        0.0403
     25 C         141.2134  138.4199  164.0420 C.ar    1  UNL1        0.1643
     26 C         141.3306  139.1885  165.3247 C.ar    1  UNL1        0.1358
     27 N         140.1757  139.2322  166.2811 N.ar    1  UNL1       -0.2449
     28 O         141.8892  144.9961  160.1496 O.3     1  UNL1       -0.4698
     29 C         140.7166  144.9731  161.0848 C.3     1  UNL1        0.2413
     30 C         139.7729  146.1380  161.1332 C.3     1  UNL1        0.0574
     31 C         140.4876  143.7850  161.9715 C.2     1  UNL1        0.2660
     32 O         139.7429  142.5921  161.4496 O.2     1  UNL1       -0.2710
     33 N         141.0033  143.7900  163.3800 N.am    1  UNL1       -0.2723
     34 C         140.7744  142.6020  164.2667 C.3     1  UNL1        0.1150
     35 C         141.7480  144.9829  163.9018 C.3     1  UNL1        0.1252
     36 C         143.2384  145.0613  163.7518 C.3     1  UNL1        0.1586
     37 O         143.8495  145.1831  162.3874 O.3     1  UNL1       -0.3802
     38 H         143.6780  144.3726  161.8828 H       1  UNL1        0.2105
@<TRIPOS>BOND
     1    21    22    1
     2    22    23   ar
     3    23    24   ar
     4    24    25   ar
     5    25    20    1
     6    20    13    1
     7    13    14   ar
     8    14    15   ar
     9    15    16   ar
    10    16    11    1
    11    11     1    1
    12     1     2   ar
    13     2     3   ar
    14     3     4   ar
    15     4     5   ar
    16     5     6   ar
    17     6     7   ar
    18     7     8   ar
    19     8     9   ar
    20     9    28    1
    21    28    29    1
    22    29    30    1
    23    29    31    1
    24    31    32    2
    25    31    33   am
    26    33    34    1
    27    33    35    1
    28    35    36    1
    29    36    37    1
    30     9    10   ar
    31    16    17   ar
    32    17    18   ar
    33    18    19    1
    34    25    26   ar
    35    26    27   ar
    36    27    22   ar
    37    18    13   ar
    38    10     1   ar
    39    10     5   ar
    40    11    12    1
    41    37    38    1
@<TRIPOS>MOLECULE
*****
 38 41 0 0 0
SMALL
GASTEIGER

@<TRIPOS>ATOM
      1 C         139.3744  141.0016  160.6626 C.ar    1  UNL1        0.1383
      2 N         139.8510  141.8238  159.5021 N.ar    1  UNL1       -0.2088
      3 C         139.7890  143.3210  159.5680 C.ar    1  UNL1        0.2000
      4 N         139.2504  143.9961  160.7944 N.ar    1  UNL1       -0.2238
      5 C         138.7737  143.1740  161.9549 C.ar    1  UNL1        0.0887
      6 C         138.2351  143.8491  163.1813 C.ar    1  UNL1        0.0195
      7 C         137.7584  143.0269  164.3418 C.ar    1  UNL1        0.0047
      8 C         137.8204  141.5296  164.2760 C.ar    1  UNL1        0.0371
      9 C         138.3591  140.8545  163.0495 C.ar    1  UNL1        0.1432
     10 C         138.8357  141.6767  161.8890 C.ar    1  UNL1        0.0833
     11 N         139.4364  139.5043  160.5967 N.pl3   1  UNL1       -0.2978
     12 H         138.9093  138.9616  161.2267 H       1  UNL1        0.1536
     13 C         142.0317  137.4931  157.5195 C.ar    1  UNL1        0.1414
     14 C         142.6080  137.8806  158.8491 C.ar    1  UNL1        0.0384
     15 C         141.7429  138.5510  159.8749 C.ar    1  UNL1        0.0178
     16 C         140.3015  138.8339  159.5710 C.ar    1  UNL1        0.0492
     17 C         139.7252  138.4465  158.2414 C.ar    1  UNL1        0.0134
     18 C         140.5904  137.7761  157.2157 C.ar    1  UNL1        0.0139
     19 C         140.0140  137.3886  155.8861 C.3     1  UNL1        0.0343
     20 O         142.8968  136.8227  156.4938 O.3     1  UNL1       -0.4522
     21 C         142.5711  130.8825  155.7143 C.3     1  UNL1        0.0521
     22 C         142.6526  132.3675  155.9091 C.ar    1  UNL1        0.0596
     23 C         142.3344  133.2918  154.7714 C.ar    1  UNL1        0.0179
     24 C         142.4159  134.7769  154.9662 C.ar    1  UNL1        0.0403
     25 C         142.8154  135.3377  156.2989 C.ar    1  UNL1        0.1643
     26 C         143.1335  134.4134  157.4367 C.ar    1  UNL1        0.1358
     27 N         143.0521  132.9283  157.2417 N.ar    1  UNL1       -0.2449
     28 O         138.4211  139.3573  162.9836 O.3     1  UNL1       -0.4698
     29 C         139.2652  138.5977  163.9638 C.3     1  UNL1        0.2413
     30 C         138.6991  138.2080  165.2971 C.3     1  UNL1        0.0574
     31 C         140.6753  138.2278  163.6106 C.2     1  UNL1        0.2660
     32 O         140.9568  136.9358  162.9023 O.2     1  UNL1       -0.2710
     33 N         141.8039  139.1498  163.9657 N.am    1  UNL1       -0.2723
     34 C         143.2140  138.7799  163.6125 C.3     1  UNL1        0.1150
     35 C         141.5223  140.4417  164.6740 C.3     1  UNL1        0.1252
     36 C         141.5410  140.4948  166.1730 C.3     1  UNL1        0.1586
     37 O         142.0698  139.3312  166.9581 O.3     1  UNL1       -0.3802
     38 H         141.4898  138.5644  166.8301 H       1  UNL1        0.2105
@<TRIPOS>BOND
     1    21    22    1
     2    22    23   ar
     3    23    24   ar
     4    24    25   ar
     5    25    20    1
     6    20    13    1
     7    13    14   ar
     8    14    15   ar
     9    15    16   ar
    10    16    11    1
    11    11     1    1
    12     1     2   ar
    13     2     3   ar
    14     3     4   ar
    15     4     5   ar
    16     5     6   ar
    17     6     7   ar
    18     7     8   ar
    19     8     9   ar
    20     9    28    1
    21    28    29    1
    22    29    30    1
    23    29    31    1
    24    31    32    2
    25    31    33   am
    26    33    34    1
    27    33    35    1
    28    35    36    1
    29    36    37    1
    30     9    10   ar
    31    16    17   ar
    32    17    18   ar
    33    18    19    1
    34    25    26   ar
    35    26    27   ar
    36    27    22   ar
    37    18    13   ar
    38    10     1   ar
    39    10     5   ar
    40    11    12    1
    41    37    38    1
