@<TRIPOS>MOLECULE
*****
 34 38 0 0 0
SMALL
GASTEIGER

@<TRIPOS>ATOM
      1 N         141.6713  138.2434  159.4682 N.3     1  UNL1       -0.2619
      2 C         142.7825  138.0590  160.4589 C.3     1  UNL1        0.0943
      3 C         142.4919  138.1088  161.9297 C.3     1  UNL1        0.1107
      4 N         141.0901  138.3430  162.4097 N.am    1  UNL1       -0.2767
      5 C         140.7995  138.3928  163.8805 C.2     1  UNL1        0.2264
      6 O         139.3979  138.6269  164.3605 O.2     1  UNL1       -0.2748
      7 C         139.9790  138.5273  161.4190 C.3     1  UNL1        0.1107
      8 C         140.2696  138.4775  159.9483 C.3     1  UNL1        0.0943
      9 C         141.9619  138.1936  157.9975 C.3     1  UNL1        0.1588
     10 C         144.4877  131.1600  155.5950 C.3     1  UNL1        0.0311
     11 C         143.7066  132.4386  155.6650 C.ar    1  UNL1       -0.0187
     12 C         142.6344  132.7188  154.6540 C.ar    1  UNL1       -0.0025
     13 C         141.8533  133.9974  154.7240 C.ar    1  UNL1        0.0220
     14 C         142.1443  134.9959  155.8049 C.ar    1  UNL1        0.1186
     15 N         141.5438  136.3328  156.1245 N.ar    1  UNL1       -0.2109
     16 C         142.2449  136.8789  157.3330 C.ar    1  UNL1        0.2221
     17 O         143.2786  135.8795  157.7603 O.2     1  UNL1       -0.4370
     18 C         143.2164  134.7157  156.8158 C.ar    1  UNL1        0.1641
     19 C         143.9976  133.4371  156.7459 C.ar    1  UNL1        0.0349
     20 C         141.9107  138.2084  164.8712 C.3     1  UNL1        0.0940
     21 C         142.3638  139.3639  165.7135 C.3     1  UNL1        0.0536
     22 C         141.8200  139.5398  167.1004 C.ar    1  UNL1       -0.0178
     23 C         142.6917  139.2604  168.2887 C.ar    1  UNL1       -0.0016
     24 C         142.1480  139.4362  169.6756 C.ar    1  UNL1        0.0293
     25 C         140.7326  139.8914  169.8741 C.ar    1  UNL1        0.1401
     26 F         140.1888  140.0672  171.2610 F       1  UNL1       -0.2042
     27 C         139.8609  140.1708  168.6858 C.ar    1  UNL1        0.0293
     28 C         140.4047  139.9949  167.2989 C.ar    1  UNL1       -0.0016
     29 C         143.3607  140.3435  165.1690 C.ar    1  UNL1       -0.0179
     30 C         144.5676  139.8512  164.4266 C.ar    1  UNL1       -0.0039
     31 C         145.5645  140.8308  163.8820 C.ar    1  UNL1       -0.0003
     32 C         145.3545  142.3028  164.0799 C.ar    1  UNL1       -0.0000
     33 C         144.1477  142.7952  164.8222 C.ar    1  UNL1       -0.0003
     34 C         143.1508  141.8155  165.3668 C.ar    1  UNL1       -0.0039
@<TRIPOS>BOND
     1    10    11    1
     2    11    12   ar
     3    12    13   ar
     4    13    14   ar
     5    14    15   ar
     6    15    16   ar
     7    16     9    1
     8     9     1    1
     9     1     2    1
    10     2     3    1
    11     3     4    1
    12     4     5   am
    13     5     6    2
    14     5    20    1
    15    20    21    1
    16    21    29    1
    17    29    30   ar
    18    30    31   ar
    19    31    32   ar
    20    32    33   ar
    21    33    34   ar
    22    21    22    1
    23    22    23   ar
    24    23    24   ar
    25    24    25   ar
    26    25    26    1
    27    25    27   ar
    28    27    28   ar
    29     4     7    1
    30     7     8    1
    31    16    17   ar
    32    17    18   ar
    33    18    19   ar
    34    19    11   ar
    35    18    14   ar
    36     8     1    1
    37    34    29   ar
    38    28    22   ar
@<TRIPOS>MOLECULE
*****
 34 38 0 0 0
SMALL
GASTEIGER

@<TRIPOS>ATOM
      1 N         141.2489  139.2351  159.6864 N.3     1  UNL1       -0.2619
      2 C         142.0936  139.9153  160.7227 C.3     1  UNL1        0.0943
      3 C         141.6306  139.9722  162.1483 C.3     1  UNL1        0.1107
      4 N         140.3229  139.3489  162.5376 N.am    1  UNL1       -0.2767
      5 C         139.8599  139.4057  163.9632 C.2     1  UNL1        0.2264
      6 O         138.5523  138.7825  164.3526 O.2     1  UNL1       -0.2748
      7 C         139.4783  138.6687  161.5013 C.3     1  UNL1        0.1107
      8 C         139.9413  138.6118  160.0757 C.3     1  UNL1        0.0943
      9 C         141.7119  139.1782  158.2607 C.3     1  UNL1        0.1588
     10 C         144.1826  132.1780  155.7080 C.3     1  UNL1        0.0311
     11 C         143.3562  133.4201  155.8639 C.ar    1  UNL1       -0.0187
     12 C         142.1196  133.6071  155.0357 C.ar    1  UNL1       -0.0025
     13 C         141.2933  134.8492  155.1916 C.ar    1  UNL1        0.0220
     14 C         141.7035  135.9043  156.1756 C.ar    1  UNL1        0.1186
     15 N         141.0929  137.2235  156.5457 N.ar    1  UNL1       -0.2109
     16 C         141.9521  137.8518  157.6026 C.ar    1  UNL1        0.2221
     17 O         143.0938  136.9210  157.8857 O.2     1  UNL1       -0.4370
     18 C         142.9401  135.7173  157.0038 C.ar    1  UNL1        0.1641
     19 C         143.7664  134.4752  156.8479 C.ar    1  UNL1        0.0349
     20 C         140.7046  140.0860  164.9996 C.3     1  UNL1        0.0940
     21 C         140.2370  141.3662  165.6260 C.3     1  UNL1        0.0536
     22 C         139.9060  142.5468  164.7619 C.ar    1  UNL1       -0.0178
     23 C         141.0074  143.3827  164.1802 C.ar    1  UNL1       -0.0016
     24 C         140.6765  144.5633  163.3162 C.ar    1  UNL1        0.0293
     25 C         139.2443  144.9081  163.0339 C.ar    1  UNL1        0.1401
     26 F         138.9133  146.0888  162.1698 F       1  UNL1       -0.2042
     27 C         138.1429  144.0723  163.6156 C.ar    1  UNL1        0.0293
     28 C         138.4738  142.8917  164.4796 C.ar    1  UNL1       -0.0016
     29 C         140.1003  141.4657  167.1164 C.ar    1  UNL1       -0.0179
     30 C         139.5642  140.3041  167.8997 C.ar    1  UNL1       -0.0039
     31 C         139.4275  140.4037  169.3901 C.ar    1  UNL1       -0.0003
     32 C         139.8269  141.6648  170.0973 C.ar    1  UNL1       -0.0000
     33 C         140.3629  142.8263  169.3141 C.ar    1  UNL1       -0.0003
     34 C         140.4996  142.7268  167.8236 C.ar    1  UNL1       -0.0039
@<TRIPOS>BOND
     1    10    11    1
     2    11    12   ar
     3    12    13   ar
     4    13    14   ar
     5    14    15   ar
     6    15    16   ar
     7    16     9    1
     8     9     1    1
     9     1     2    1
    10     2     3    1
    11     3     4    1
    12     4     5   am
    13     5     6    2
    14     5    20    1
    15    20    21    1
    16    21    29    1
    17    29    30   ar
    18    30    31   ar
    19    31    32   ar
    20    32    33   ar
    21    33    34   ar
    22    21    22    1
    23    22    23   ar
    24    23    24   ar
    25    24    25   ar
    26    25    26    1
    27    25    27   ar
    28    27    28   ar
    29     4     7    1
    30     7     8    1
    31    16    17   ar
    32    17    18   ar
    33    18    19   ar
    34    19    11   ar
    35    18    14   ar
    36     8     1    1
    37    34    29   ar
    38    28    22   ar
@<TRIPOS>MOLECULE
*****
 34 38 0 0 0
SMALL
GASTEIGER

@<TRIPOS>ATOM
      1 N         142.1544  138.6607  159.7036 N.3     1  UNL1       -0.2619
      2 C         141.1717  138.5837  160.8343 C.3     1  UNL1        0.0943
      3 C         141.6463  138.7180  162.2509 C.3     1  UNL1        0.1107
      4 N         143.1036  138.9294  162.5368 N.am    1  UNL1       -0.2767
      5 C         143.5782  139.0637  163.9534 C.2     1  UNL1        0.2264
      6 O         145.0354  139.2750  164.2393 O.2     1  UNL1       -0.2748
      7 C         144.0862  139.0064  161.4061 C.3     1  UNL1        0.1107
      8 C         143.6116  138.8720  159.9895 C.3     1  UNL1        0.0943
      9 C         141.6798  138.5264  158.2870 C.3     1  UNL1        0.1588
     10 C         144.1538  131.6980  155.3077 C.3     1  UNL1        0.0311
     11 C         143.3642  132.9588  155.4996 C.ar    1  UNL1       -0.0187
     12 C         142.2400  133.2895  154.5633 C.ar    1  UNL1       -0.0025
     13 C         141.4503  134.5503  154.7552 C.ar    1  UNL1        0.0220
     14 C         141.7849  135.4804  155.8835 C.ar    1  UNL1        0.1186
     15 N         141.1876  136.7855  156.3191 N.ar    1  UNL1       -0.2109
     16 C         141.9426  137.2614  157.5247 C.ar    1  UNL1        0.2221
     17 O         143.0066  136.2504  157.8342 O.2     1  UNL1       -0.4370
     18 C         142.9090  135.1496  156.8199 C.ar    1  UNL1        0.1641
     19 C         143.6987  133.8888  156.6279 C.ar    1  UNL1        0.0349
     20 C         142.5955  138.9867  165.0841 C.3     1  UNL1        0.0940
     21 C         142.2844  140.2116  165.8921 C.3     1  UNL1        0.0536
     22 C         142.5234  141.5738  165.3113 C.ar    1  UNL1       -0.0178
     23 C         143.7777  142.3237  165.6495 C.ar    1  UNL1       -0.0016
     24 C         144.0168  143.6859  165.0688 C.ar    1  UNL1        0.0293
     25 C         143.0016  144.2982  164.1499 C.ar    1  UNL1        0.1401
     26 F         143.2406  145.6604  163.5692 F       1  UNL1       -0.2042
     27 C         141.7473  143.5483  163.8117 C.ar    1  UNL1        0.0293
     28 C         141.5082  142.1861  164.3924 C.ar    1  UNL1       -0.0016
     29 C         141.7342  140.0742  167.2807 C.ar    1  UNL1       -0.0179
     30 C         140.2909  140.3820  167.5495 C.ar    1  UNL1       -0.0039
     31 C         139.7408  140.2447  168.9382 C.ar    1  UNL1       -0.0003
     32 C         140.6339  139.7996  170.0581 C.ar    1  UNL1       -0.0000
     33 C         142.0771  139.4918  169.7894 C.ar    1  UNL1       -0.0003
     34 C         142.6273  139.6291  168.4007 C.ar    1  UNL1       -0.0039
@<TRIPOS>BOND
     1    10    11    1
     2    11    12   ar
     3    12    13   ar
     4    13    14   ar
     5    14    15   ar
     6    15    16   ar
     7    16     9    1
     8     9     1    1
     9     1     2    1
    10     2     3    1
    11     3     4    1
    12     4     5   am
    13     5     6    2
    14     5    20    1
    15    20    21    1
    16    21    29    1
    17    29    30   ar
    18    30    31   ar
    19    31    32   ar
    20    32    33   ar
    21    33    34   ar
    22    21    22    1
    23    22    23   ar
    24    23    24   ar
    25    24    25   ar
    26    25    26    1
    27    25    27   ar
    28    27    28   ar
    29     4     7    1
    30     7     8    1
    31    16    17   ar
    32    17    18   ar
    33    18    19   ar
    34    19    11   ar
    35    18    14   ar
    36     8     1    1
    37    34    29   ar
    38    28    22   ar
@<TRIPOS>MOLECULE
*****
 34 38 0 0 0
SMALL
GASTEIGER

@<TRIPOS>ATOM
      1 N         141.8851  138.1519  159.2115 N.3     1  UNL1       -0.2619
      2 C         142.6701  137.7672  160.4306 C.3     1  UNL1        0.0943
      3 C         142.0416  137.8650  161.7890 C.3     1  UNL1        0.1107
      4 N         140.6281  138.3475  161.9285 N.am    1  UNL1       -0.2767
      5 C         139.9996  138.4453  163.2869 C.2     1  UNL1        0.2264
      6 O         138.5862  138.9278  163.4264 O.2     1  UNL1       -0.2748
      7 C         139.8432  138.7322  160.7095 C.3     1  UNL1        0.1107
      8 C         140.4717  138.6344  159.3510 C.3     1  UNL1        0.0943
      9 C         142.5136  138.0541  157.8531 C.3     1  UNL1        0.1588
     10 C         144.1887  130.9736  154.9060 C.3     1  UNL1        0.0311
     11 C         143.4683  132.2592  155.1863 C.ar    1  UNL1       -0.0187
     12 C         142.1470  132.5364  154.5328 C.ar    1  UNL1       -0.0025
     13 C         141.4267  133.8219  154.8130 C.ar    1  UNL1        0.0220
     14 C         142.0277  134.8303  155.7468 C.ar    1  UNL1        0.1186
     15 N         141.5539  136.1755  156.2114 N.ar    1  UNL1       -0.2109
     16 C         142.5825  136.7297  157.1522 C.ar    1  UNL1        0.2221
     17 O         143.6920  135.7270  157.2689 O.2     1  UNL1       -0.4370
     18 C         143.3491  134.5531  156.4003 C.ar    1  UNL1        0.1641
     19 C         144.0694  133.2675  156.1200 C.ar    1  UNL1        0.0349
     20 C         140.7846  138.0606  164.5059 C.3     1  UNL1        0.0940
     21 C         141.4636  139.1178  165.3252 C.3     1  UNL1        0.0536
     22 C         142.6876  139.8054  164.7968 C.ar    1  UNL1       -0.0178
     23 C         142.5931  141.2085  164.2747 C.ar    1  UNL1       -0.0016
     24 C         143.8170  141.8960  163.7463 C.ar    1  UNL1        0.0293
     25 C         145.1353  141.1805  163.7399 C.ar    1  UNL1        0.1401
     26 F         146.3593  141.8681  163.2114 F       1  UNL1       -0.2042
     27 C         145.2297  139.7775  164.2619 C.ar    1  UNL1        0.0293
     28 C         144.0059  139.0899  164.7904 C.ar    1  UNL1       -0.0016
     29 C         140.9186  139.4875  166.6729 C.ar    1  UNL1       -0.0179
     30 C         139.4359  139.5357  166.8950 C.ar    1  UNL1       -0.0039
     31 C         138.8909  139.9054  168.2427 C.ar    1  UNL1       -0.0003
     32 C         139.8287  140.2269  169.3684 C.ar    1  UNL1       -0.0000
     33 C         141.3114  140.1787  169.1464 C.ar    1  UNL1       -0.0003
     34 C         141.8564  139.8090  167.7987 C.ar    1  UNL1       -0.0039
@<TRIPOS>BOND
     1    10    11    1
     2    11    12   ar
     3    12    13   ar
     4    13    14   ar
     5    14    15   ar
     6    15    16   ar
     7    16     9    1
     8     9     1    1
     9     1     2    1
    10     2     3    1
    11     3     4    1
    12     4     5   am
    13     5     6    2
    14     5    20    1
    15    20    21    1
    16    21    29    1
    17    29    30   ar
    18    30    31   ar
    19    31    32   ar
    20    32    33   ar
    21    33    34   ar
    22    21    22    1
    23    22    23   ar
    24    23    24   ar
    25    24    25   ar
    26    25    26    1
    27    25    27   ar
    28    27    28   ar
    29     4     7    1
    30     7     8    1
    31    16    17   ar
    32    17    18   ar
    33    18    19   ar
    34    19    11   ar
    35    18    14   ar
    36     8     1    1
    37    34    29   ar
    38    28    22   ar
@<TRIPOS>MOLECULE
*****
 34 38 0 0 0
SMALL
GASTEIGER

@<TRIPOS>ATOM
      1 N         142.3451  138.5737  159.8428 N.3     1  UNL1       -0.2619
      2 C         141.1285  138.3276  160.6852 C.3     1  UNL1        0.0943
      3 C         141.2371  138.3402  162.1812 C.3     1  UNL1        0.1107
      4 N         142.5622  138.5990  162.8348 N.am    1  UNL1       -0.2767
      5 C         142.6708  138.6116  164.3309 C.2     1  UNL1        0.2264
      6 O         143.9958  138.8703  164.9845 O.2     1  UNL1       -0.2748
      7 C         143.7787  138.8450  161.9925 C.3     1  UNL1        0.1107
      8 C         143.6701  138.8324  160.4965 C.3     1  UNL1        0.0943
      9 C         142.2365  138.5611  158.3468 C.3     1  UNL1        0.1588
     10 C         144.2864  131.5120  155.5661 C.3     1  UNL1        0.0311
     11 C         143.6524  132.8678  155.6661 C.ar    1  UNL1       -0.0187
     12 C         142.7824  133.3729  154.5535 C.ar    1  UNL1       -0.0025
     13 C         142.1485  134.7286  154.6536 C.ar    1  UNL1        0.0220
     14 C         142.3846  135.5793  155.8662 C.ar    1  UNL1        0.1186
     15 N         141.8974  136.9469  156.2433 N.ar    1  UNL1       -0.2109
     16 C         142.4662  137.2871  157.5889 C.ar    1  UNL1        0.2221
     17 O         143.3051  136.1297  158.0435 O.2     1  UNL1       -0.4370
     18 C         143.2546  135.0742  156.9788 C.ar    1  UNL1        0.1641
     19 C         143.8885  133.7184  156.8788 C.ar    1  UNL1        0.0349
     20 C         141.4542  138.3655  165.1732 C.3     1  UNL1        0.0940
     21 C         140.7693  139.5129  165.8547 C.3     1  UNL1        0.0536
     22 C         139.9283  140.4651  165.0571 C.ar    1  UNL1       -0.0178
     23 C         140.4606  141.8229  164.7065 C.ar    1  UNL1       -0.0016
     24 C         139.6197  142.7751  163.9089 C.ar    1  UNL1        0.0293
     25 C         138.2465  142.3695  163.4620 C.ar    1  UNL1        0.1401
     26 F         137.4055  143.3217  162.6644 F       1  UNL1       -0.2042
     27 C         137.7142  141.0116  163.8127 C.ar    1  UNL1        0.0293
     28 C         138.5551  140.0594  164.6102 C.ar    1  UNL1       -0.0016
     29 C         140.9253  139.7080  167.3337 C.ar    1  UNL1       -0.0179
     30 C         139.7377  140.0819  168.1703 C.ar    1  UNL1       -0.0039
     31 C         139.8937  140.2770  169.6493 C.ar    1  UNL1       -0.0003
     32 C         141.2373  140.0983  170.2918 C.ar    1  UNL1       -0.0000
     33 C         142.4249  139.7245  169.4553 C.ar    1  UNL1       -0.0003
     34 C         142.2689  139.5293  167.9762 C.ar    1  UNL1       -0.0039
@<TRIPOS>BOND
     1    10    11    1
     2    11    12   ar
     3    12    13   ar
     4    13    14   ar
     5    14    15   ar
     6    15    16   ar
     7    16     9    1
     8     9     1    1
     9     1     2    1
    10     2     3    1
    11     3     4    1
    12     4     5   am
    13     5     6    2
    14     5    20    1
    15    20    21    1
    16    21    29    1
    17    29    30   ar
    18    30    31   ar
    19    31    32   ar
    20    32    33   ar
    21    33    34   ar
    22    21    22    1
    23    22    23   ar
    24    23    24   ar
    25    24    25   ar
    26    25    26    1
    27    25    27   ar
    28    27    28   ar
    29     4     7    1
    30     7     8    1
    31    16    17   ar
    32    17    18   ar
    33    18    19   ar
    34    19    11   ar
    35    18    14   ar
    36     8     1    1
    37    34    29   ar
    38    28    22   ar
@<TRIPOS>MOLECULE
*****
 34 38 0 0 0
SMALL
GASTEIGER

@<TRIPOS>ATOM
      1 N         139.9853  143.3413  159.7332 N.3     1  UNL1       -0.2619
      2 C         140.9526  143.8666  160.7523 C.3     1  UNL1        0.0943
      3 C         140.6119  143.8039  162.2118 C.3     1  UNL1        0.1107
      4 N         139.3040  143.2160  162.6521 N.am    1  UNL1       -0.2767
      5 C         138.9634  143.1533  164.1116 C.2     1  UNL1        0.2264
      6 O         137.6556  142.5654  164.5519 O.2     1  UNL1       -0.2748
      7 C         138.3368  142.6907  161.6330 C.3     1  UNL1        0.1107
      8 C         138.6775  142.7534  160.1735 C.3     1  UNL1        0.0943
      9 C         140.3259  143.4039  158.2737 C.3     1  UNL1        0.1588
     10 C         138.4390  150.5042  155.5081 C.3     1  UNL1        0.0311
     11 C         138.9737  149.1044  155.5755 C.ar    1  UNL1       -0.0187
     12 C         139.6271  148.4924  154.3720 C.ar    1  UNL1       -0.0025
     13 C         140.1618  147.0925  154.4394 C.ar    1  UNL1        0.0220
     14 C         140.0430  146.3047  155.7103 C.ar    1  UNL1        0.1186
     15 N         140.4733  144.9144  156.0732 N.ar    1  UNL1       -0.2109
     16 C         140.0858  144.6671  157.5011 C.ar    1  UNL1        0.2221
     17 O         139.4160  145.9046  158.0206 O.2     1  UNL1       -0.4370
     18 C         139.3896  146.9167  156.9137 C.ar    1  UNL1        0.1641
     19 C         138.8549  148.3166  156.8464 C.ar    1  UNL1        0.0349
     20 C         139.9306  143.6786  165.1307 C.3     1  UNL1        0.0940
     21 C         140.8399  142.7335  165.8587 C.3     1  UNL1        0.0536
     22 C         142.1786  142.3844  165.2788 C.ar    1  UNL1       -0.0178
     23 C         142.3844  141.0556  164.6140 C.ar    1  UNL1       -0.0016
     24 C         143.7229  140.7064  164.0341 C.ar    1  UNL1        0.0293
     25 C         144.8556  141.6860  164.1189 C.ar    1  UNL1        0.1401
     26 F         146.1943  141.3369  163.5390 F       1  UNL1       -0.2042
     27 C         144.6498  143.0149  164.7837 C.ar    1  UNL1        0.0293
     28 C         143.3113  143.3640  165.3636 C.ar    1  UNL1       -0.0016
     29 C         140.4107  142.1376  167.1666 C.ar    1  UNL1       -0.0179
     30 C         139.8437  140.7494  167.2081 C.ar    1  UNL1       -0.0039
     31 C         139.4145  140.1535  168.5160 C.ar    1  UNL1       -0.0003
     32 C         139.5521  140.9456  169.7823 C.ar    1  UNL1       -0.0000
     33 C         140.1190  142.3337  169.7408 C.ar    1  UNL1       -0.0003
     34 C         140.5483  142.9297  168.4329 C.ar    1  UNL1       -0.0039
@<TRIPOS>BOND
     1    10    11    1
     2    11    12   ar
     3    12    13   ar
     4    13    14   ar
     5    14    15   ar
     6    15    16   ar
     7    16     9    1
     8     9     1    1
     9     1     2    1
    10     2     3    1
    11     3     4    1
    12     4     5   am
    13     5     6    2
    14     5    20    1
    15    20    21    1
    16    21    29    1
    17    29    30   ar
    18    30    31   ar
    19    31    32   ar
    20    32    33   ar
    21    33    34   ar
    22    21    22    1
    23    22    23   ar
    24    23    24   ar
    25    24    25   ar
    26    25    26    1
    27    25    27   ar
    28    27    28   ar
    29     4     7    1
    30     7     8    1
    31    16    17   ar
    32    17    18   ar
    33    18    19   ar
    34    19    11   ar
    35    18    14   ar
    36     8     1    1
    37    34    29   ar
    38    28    22   ar
@<TRIPOS>MOLECULE
*****
 34 38 0 0 0
SMALL
GASTEIGER

@<TRIPOS>ATOM
      1 N         139.3091  139.3252  160.0611 N.3     1  UNL1       -0.2619
      2 C         139.5899  140.5719  160.8466 C.3     1  UNL1        0.0943
      3 C         139.6658  140.5140  162.3436 C.3     1  UNL1        0.1107
      4 N         139.4610  139.2093  163.0550 N.am    1  UNL1       -0.2767
      5 C         139.5370  139.1514  164.5519 C.2     1  UNL1        0.2264
      6 O         139.3322  137.8468  165.2634 O.2     1  UNL1       -0.2748
      7 C         139.1803  137.9627  162.2694 C.3     1  UNL1        0.1107
      8 C         139.1043  138.0206  160.7725 C.3     1  UNL1        0.0943
      9 C         139.2331  139.3831  158.5641 C.3     1  UNL1        0.1588
     10 C         142.1153  134.0992  153.5246 C.3     1  UNL1        0.0311
     11 C         142.0376  135.1073  154.6326 C.ar    1  UNL1       -0.0187
     12 C         143.2691  135.4613  155.4122 C.ar    1  UNL1       -0.0025
     13 C         143.1914  136.4695  156.5202 C.ar    1  UNL1        0.0220
     14 C         141.8821  137.1236  156.8485 C.ar    1  UNL1        0.1186
     15 N         141.5011  138.1457  157.8781 N.ar    1  UNL1       -0.2109
     16 C         140.0340  138.4234  157.7348 C.ar    1  UNL1        0.2221
     17 O         139.5083  137.5729  156.6166 O.2     1  UNL1       -0.4370
     18 C         140.6506  136.7696  156.0689 C.ar    1  UNL1        0.1641
     19 C         140.7283  135.7614  154.9609 C.ar    1  UNL1        0.0349
     20 C         139.8177  140.3981  165.3375 C.3     1  UNL1        0.0940
     21 C         141.0565  140.4918  166.1781 C.3     1  UNL1        0.0536
     22 C         142.3761  140.8043  165.5370 C.ar    1  UNL1       -0.0178
     23 C         143.1761  139.7097  164.8953 C.ar    1  UNL1       -0.0016
     24 C         144.4957  140.0222  164.2542 C.ar    1  UNL1        0.0293
     25 C         145.0152  141.4293  164.2548 C.ar    1  UNL1        0.1401
     26 F         146.3349  141.7418  163.6137 F       1  UNL1       -0.2042
     27 C         144.2152  142.5239  164.8965 C.ar    1  UNL1        0.0293
     28 C         142.8957  142.2115  165.5376 C.ar    1  UNL1       -0.0016
     29 C         140.9757  140.2730  167.6599 C.ar    1  UNL1       -0.0179
     30 C         142.1698  139.7594  168.4084 C.ar    1  UNL1       -0.0039
     31 C         142.0890  139.5406  169.8901 C.ar    1  UNL1       -0.0003
     32 C         140.8140  139.8354  170.6234 C.ar    1  UNL1       -0.0000
     33 C         139.6199  140.3490  169.8749 C.ar    1  UNL1       -0.0003
     34 C         139.7007  140.5678  168.3931 C.ar    1  UNL1       -0.0039
@<TRIPOS>BOND
     1    10    11    1
     2    11    12   ar
     3    12    13   ar
     4    13    14   ar
     5    14    15   ar
     6    15    16   ar
     7    16     9    1
     8     9     1    1
     9     1     2    1
    10     2     3    1
    11     3     4    1
    12     4     5   am
    13     5     6    2
    14     5    20    1
    15    20    21    1
    16    21    29    1
    17    29    30   ar
    18    30    31   ar
    19    31    32   ar
    20    32    33   ar
    21    33    34   ar
    22    21    22    1
    23    22    23   ar
    24    23    24   ar
    25    24    25   ar
    26    25    26    1
    27    25    27   ar
    28    27    28   ar
    29     4     7    1
    30     7     8    1
    31    16    17   ar
    32    17    18   ar
    33    18    19   ar
    34    19    11   ar
    35    18    14   ar
    36     8     1    1
    37    34    29   ar
    38    28    22   ar
@<TRIPOS>MOLECULE
*****
 34 38 0 0 0
SMALL
GASTEIGER

@<TRIPOS>ATOM
      1 N         141.4612  138.8373  159.3004 N.3     1  UNL1       -0.2619
      2 C         140.3130  138.6279  160.2427 C.3     1  UNL1        0.0943
      3 C         140.4746  138.9355  161.7019 C.3     1  UNL1        0.1107
      4 N         141.7844  139.4525  162.2188 N.am    1  UNL1       -0.2767
      5 C         141.9461  139.7600  163.6780 C.2     1  UNL1        0.2264
      6 O         143.2558  140.2770  164.1949 O.2     1  UNL1       -0.2748
      7 C         142.9325  139.6619  161.2765 C.3     1  UNL1        0.1107
      8 C         142.7709  139.3543  159.8173 C.3     1  UNL1        0.0943
      9 C         141.2995  138.5297  157.8412 C.3     1  UNL1        0.1588
     10 C         144.7927  131.7228  156.0839 C.3     1  UNL1        0.0311
     11 C         143.8482  132.8871  156.0332 C.ar    1  UNL1       -0.0187
     12 C         142.7753  132.9373  154.9861 C.ar    1  UNL1       -0.0025
     13 C         141.8308  134.1015  154.9354 C.ar    1  UNL1        0.0220
     14 C         141.9592  135.2155  155.9317 C.ar    1  UNL1        0.1186
     15 N         141.1796  136.4819  156.1273 N.ar    1  UNL1       -0.2109
     16 C         141.7707  137.2144  157.2953 C.ar    1  UNL1        0.2221
     17 O         142.9156  136.4006  157.8215 O.2     1  UNL1       -0.4370
     18 C         143.0321  135.1652  156.9787 C.ar    1  UNL1        0.1641
     19 C         143.9766  134.0010  157.0294 C.ar    1  UNL1        0.0349
     20 C         140.7979  139.5506  164.6203 C.3     1  UNL1        0.0940
     21 C         140.4351  140.6184  165.6094 C.3     1  UNL1        0.0536
     22 C         140.9128  140.5202  167.0280 C.ar    1  UNL1       -0.0178
     23 C         139.9558  140.1345  168.1167 C.ar    1  UNL1       -0.0016
     24 C         140.4335  140.0364  169.5352 C.ar    1  UNL1        0.0293
     25 C         141.8682  140.3240  169.8649 C.ar    1  UNL1        0.1401
     26 F         142.3459  140.2259  171.2835 F       1  UNL1       -0.2042
     27 C         142.8252  140.7097  168.7762 C.ar    1  UNL1        0.0293
     28 C         142.3475  140.8078  167.3577 C.ar    1  UNL1       -0.0016
     29 C         139.5945  141.7842  165.1800 C.ar    1  UNL1       -0.0179
     30 C         139.8744  143.1525  165.7273 C.ar    1  UNL1       -0.0039
     31 C         139.0338  144.3183  165.2979 C.ar    1  UNL1       -0.0003
     32 C         137.9135  144.1158  164.3213 C.ar    1  UNL1       -0.0000
     33 C         137.6337  142.7476  163.7740 C.ar    1  UNL1       -0.0003
     34 C         138.4742  141.5817  164.2034 C.ar    1  UNL1       -0.0039
@<TRIPOS>BOND
     1    10    11    1
     2    11    12   ar
     3    12    13   ar
     4    13    14   ar
     5    14    15   ar
     6    15    16   ar
     7    16     9    1
     8     9     1    1
     9     1     2    1
    10     2     3    1
    11     3     4    1
    12     4     5   am
    13     5     6    2
    14     5    20    1
    15    20    21    1
    16    21    29    1
    17    29    30   ar
    18    30    31   ar
    19    31    32   ar
    20    32    33   ar
    21    33    34   ar
    22    21    22    1
    23    22    23   ar
    24    23    24   ar
    25    24    25   ar
    26    25    26    1
    27    25    27   ar
    28    27    28   ar
    29     4     7    1
    30     7     8    1
    31    16    17   ar
    32    17    18   ar
    33    18    19   ar
    34    19    11   ar
    35    18    14   ar
    36     8     1    1
    37    34    29   ar
    38    28    22   ar
@<TRIPOS>MOLECULE
*****
 34 38 0 0 0
SMALL
GASTEIGER

@<TRIPOS>ATOM
      1 N         138.4069  140.7304  160.1700 N.3     1  UNL1       -0.2619
      2 C         138.5444  139.7165  161.2670 C.3     1  UNL1        0.0943
      3 C         138.6953  140.1667  162.6898 C.3     1  UNL1        0.1107
      4 N         138.7087  141.6309  163.0157 N.am    1  UNL1       -0.2767
      5 C         138.8596  142.0812  164.4386 C.2     1  UNL1        0.2264
      6 O         138.8730  143.5452  164.7645 O.2     1  UNL1       -0.2748
      7 C         138.5712  142.6447  161.9188 C.3     1  UNL1        0.1107
      8 C         138.4203  142.1944  160.4960 C.3     1  UNL1        0.0943
      9 C         138.2559  140.2801  158.7472 C.3     1  UNL1        0.1588
     10 C         142.3518  134.9714  154.6648 C.3     1  UNL1        0.0311
     11 C         141.9962  136.0031  155.6940 C.ar    1  UNL1       -0.0187
     12 C         143.0069  136.4156  156.7228 C.ar    1  UNL1       -0.0025
     13 C         142.6513  137.4473  157.7520 C.ar    1  UNL1        0.0220
     14 C         141.2851  138.0665  157.7524 C.ar    1  UNL1        0.1186
     15 N         140.6520  139.1004  158.6356 N.ar    1  UNL1       -0.2109
     16 C         139.2500  139.3270  158.1527 C.ar    1  UNL1        0.2221
     17 O         139.0167  138.4330  156.9710 O.2     1  UNL1       -0.4370
     18 C         140.2745  137.6540  156.7236 C.ar    1  UNL1        0.1641
     19 C         140.6300  136.6223  155.6944 C.ar    1  UNL1        0.0349
     20 C         138.9971  141.0672  165.5355 C.3     1  UNL1        0.0940
     21 C         140.2179  141.0662  166.4071 C.3     1  UNL1        0.0536
     22 C         141.5236  140.5610  165.8685 C.ar    1  UNL1       -0.0178
     23 C         142.6239  141.5266  165.5414 C.ar    1  UNL1       -0.0016
     24 C         143.9295  141.0214  165.0029 C.ar    1  UNL1        0.0293
     25 C         144.1348  139.5507  164.7914 C.ar    1  UNL1        0.1401
     26 F         145.4405  139.0454  164.2528 F       1  UNL1       -0.2042
     27 C         143.0345  138.5851  165.1185 C.ar    1  UNL1        0.0293
     28 C         141.7289  139.0903  165.6571 C.ar    1  UNL1       -0.0016
     29 C         140.1330  141.5704  167.8173 C.ar    1  UNL1       -0.0179
     30 C         140.4717  142.9991  168.1247 C.ar    1  UNL1       -0.0039
     31 C         140.3868  143.5033  169.5348 C.ar    1  UNL1       -0.0003
     32 C         139.9633  142.5789  170.6376 C.ar    1  UNL1       -0.0000
     33 C         139.6247  141.1504  170.3303 C.ar    1  UNL1       -0.0003
     34 C         139.7095  140.6461  168.9201 C.ar    1  UNL1       -0.0039
@<TRIPOS>BOND
     1    10    11    1
     2    11    12   ar
     3    12    13   ar
     4    13    14   ar
     5    14    15   ar
     6    15    16   ar
     7    16     9    1
     8     9     1    1
     9     1     2    1
    10     2     3    1
    11     3     4    1
    12     4     5   am
    13     5     6    2
    14     5    20    1
    15    20    21    1
    16    21    29    1
    17    29    30   ar
    18    30    31   ar
    19    31    32   ar
    20    32    33   ar
    21    33    34   ar
    22    21    22    1
    23    22    23   ar
    24    23    24   ar
    25    24    25   ar
    26    25    26    1
    27    25    27   ar
    28    27    28   ar
    29     4     7    1
    30     7     8    1
    31    16    17   ar
    32    17    18   ar
    33    18    19   ar
    34    19    11   ar
    35    18    14   ar
    36     8     1    1
    37    34    29   ar
    38    28    22   ar
