@<TRIPOS>MOLECULE
*****
 40 43 0 0 0
SMALL
GASTEIGER

@<TRIPOS>ATOM
      1 C         139.0519  141.0574  160.7034 C.3     1  UNL1        0.0702
      2 C         139.3537  140.1930  159.5152 C.3     1  UNL1        0.0100
      3 C         139.5193  141.0867  158.3220 C.3     1  UNL1        0.0164
      4 C         139.3198  142.5034  158.7727 C.3     1  UNL1        0.0580
      5 C         139.0309  142.4853  160.2445 C.3     1  UNL1        0.0246
      6 N         139.3959  143.7239  157.9041 N.3     1  UNL1       -0.2739
      7 C         138.7685  143.7152  156.5417 C.3     1  UNL1        0.0724
      8 C         138.8445  144.9358  155.6731 C.3     1  UNL1        0.0217
      9 C         139.5481  146.1651  156.1669 C.3     1  UNL1        0.0252
     10 C         140.1755  146.1738  157.5294 C.3     1  UNL1        0.0217
     11 C         140.0994  144.9532  158.3980 C.3     1  UNL1        0.0724
     12 C         139.6241  147.3856  155.2983 C.ar    1  UNL1       -0.0202
     13 C         140.3772  147.3378  154.0019 C.ar    1  UNL1       -0.0041
     14 C         140.4532  148.5584  153.1333 C.ar    1  UNL1        0.0020
     15 C         139.7762  149.8267  153.5611 C.ar    1  UNL1        0.0296
     16 C         139.0231  149.8745  154.8575 C.ar    1  UNL1        0.1398
     17 F         138.3461  151.1428  155.2853 F       1  UNL1       -0.2042
     18 C         138.9471  148.6540  155.7261 C.ar    1  UNL1        0.0254
     19 C         138.7408  141.6491  162.0462 C.2     1  UNL1        0.2218
     20 O         137.3152  141.7968  162.4887 O.2     1  UNL1       -0.2751
     21 N         139.8554  142.0931  162.9465 N.am    1  UNL1       -0.3004
     22 H         140.7911  141.9962  162.6561 H       1  UNL1        0.1497
     23 C         139.5444  142.6848  164.2893 C.3     1  UNL1        0.1163
     24 C         139.5312  141.8116  165.5089 C.ar    1  UNL1       -0.0027
     25 C         140.2284  142.2591  166.7593 C.ar    1  UNL1        0.0012
     26 C         140.2151  141.3859  167.9788 C.ar    1  UNL1        0.0711
     27 C         139.5048  140.0651  167.9479 C.ar    1  UNL1        0.0077
     28 C         138.8076  139.6176  166.6975 C.ar    1  UNL1        0.0711
     29 C         138.8208  140.4908  165.4780 C.ar    1  UNL1        0.0012
     30 C         140.9123  141.8334  169.2294 C.3     1  UNL1        0.4186
     31 F         141.6094  142.2809  170.4798 F       1  UNL1       -0.1659
     32 F         139.7264  142.6789  169.5879 F       1  UNL1       -0.1659
     33 F         142.0982  140.9878  168.8709 F       1  UNL1       -0.1659
     34 C         138.0972  138.2969  166.6665 C.3     1  UNL1        0.4186
     35 F         137.3868  136.9761  166.6356 F       1  UNL1       -0.1659
     36 F         138.8706  137.9095  165.4411 F       1  UNL1       -0.1659
     37 F         137.3238  138.6842  167.8920 F       1  UNL1       -0.1659
     38 C         137.7450  138.9439  161.4617 C.3     1  UNL1        0.0005
     39 C         139.0078  139.7532  161.4431 C.3     1  UNL1        0.0082
     40 C         140.2265  139.2583  162.1641 C.3     1  UNL1        0.0005
@<TRIPOS>BOND
     1    38    39    1
     2    39    40    1
     3     1    39    1
     4     1    19    1
     5    19    20    2
     6    19    21   am
     7    21    23    1
     8    23    24    1
     9    24    25   ar
    10    25    26   ar
    11    26    30    1
    12    30    31    1
    13    30    32    1
    14    30    33    1
    15    26    27   ar
    16    27    28   ar
    17    28    34    1
    18    34    35    1
    19    34    36    1
    20    34    37    1
    21    28    29   ar
    22     1     2    1
    23     2     3    1
    24     3     4    1
    25     4     6    1
    26     6     7    1
    27     7     8    1
    28     8     9    1
    29     9    12    1
    30    12    13   ar
    31    13    14   ar
    32    14    15   ar
    33    15    16   ar
    34    16    17    1
    35    16    18   ar
    36     9    10    1
    37    10    11    1
    38     4     5    1
    39     5     1    1
    40    29    24   ar
    41    11     6    1
    42    18    12   ar
    43    21    22    1
@<TRIPOS>MOLECULE
*****
 40 43 0 0 0
SMALL
GASTEIGER

@<TRIPOS>ATOM
      1 C         143.5691  142.8008  163.3735 C.3     1  UNL1        0.0702
      2 C         144.1875  143.6276  162.2854 C.3     1  UNL1        0.0100
      3 C         144.0687  142.8648  160.9993 C.3     1  UNL1        0.0164
      4 C         143.3770  141.5665  161.2925 C.3     1  UNL1        0.0580
      5 C         143.0683  141.5270  162.7599 C.3     1  UNL1        0.0246
      6 N         143.0513  140.4958  160.2938 N.3     1  UNL1       -0.2739
      7 C         142.5134  140.8678  158.9440 C.3     1  UNL1        0.0724
      8 C         142.1876  139.7971  157.9453 C.3     1  UNL1        0.0217
      9 C         142.3998  138.3543  158.2964 C.3     1  UNL1        0.0252
     10 C         142.9378  137.9823  159.6464 C.3     1  UNL1        0.0217
     11 C         143.2635  139.0530  160.6451 C.3     1  UNL1        0.0724
     12 C         142.0740  137.2836  157.2977 C.ar    1  UNL1       -0.0202
     13 C         140.8324  137.3894  156.4628 C.ar    1  UNL1       -0.0041
     14 C         140.5066  136.3187  155.4641 C.ar    1  UNL1        0.0020
     15 C         141.4226  135.1422  155.3002 C.ar    1  UNL1        0.0296
     16 C         142.6643  135.0363  156.1352 C.ar    1  UNL1        0.1398
     17 F         143.5802  133.8598  155.9713 F       1  UNL1       -0.2042
     18 C         142.9900  136.1070  157.1339 C.ar    1  UNL1        0.0254
     19 C         143.0320  142.2146  164.6454 C.2     1  UNL1        0.2218
     20 O         141.9000  142.8887  165.3625 O.2     1  UNL1       -0.2751
     21 N         143.6269  140.9544  165.2004 N.am    1  UNL1       -0.3004
     22 H         144.3699  140.5120  164.7298 H       1  UNL1        0.1497
     23 C         143.0898  140.3682  166.4723 C.3     1  UNL1        0.1163
     24 C         141.6651  139.9038  166.5412 C.ar    1  UNL1       -0.0027
     25 C         140.8526  140.1572  167.7763 C.ar    1  UNL1        0.0012
     26 C         139.4280  139.6929  167.8452 C.ar    1  UNL1        0.0711
     27 C         138.8159  138.9751  166.6789 C.ar    1  UNL1        0.0077
     28 C         139.6285  138.7217  165.4438 C.ar    1  UNL1        0.0711
     29 C         141.0531  139.1861  165.3750 C.ar    1  UNL1        0.0012
     30 C         138.6154  139.9463  169.0803 C.3     1  UNL1        0.4186
     31 F         137.8028  140.1996  170.3154 F       1  UNL1       -0.1659
     32 F         137.5588  139.0077  168.5777 F       1  UNL1       -0.1659
     33 F         139.6720  140.8848  169.5830 F       1  UNL1       -0.1659
     34 C         139.0164  138.0039  164.2776 C.3     1  UNL1        0.4186
     35 F         138.4043  137.2861  163.1113 F       1  UNL1       -0.1659
     36 F         138.4293  136.9873  165.2113 F       1  UNL1       -0.1659
     37 F         139.6035  139.0204  163.3438 F       1  UNL1       -0.1659
     38 C         144.8548  143.7246  165.4334 C.3     1  UNL1        0.0005
     39 C         143.9577  143.9520  164.2530 C.3     1  UNL1        0.0082
     40 C         143.4492  145.3308  163.9521 C.3     1  UNL1        0.0005
@<TRIPOS>BOND
     1    38    39    1
     2    39    40    1
     3     1    39    1
     4     1    19    1
     5    19    20    2
     6    19    21   am
     7    21    23    1
     8    23    24    1
     9    24    25   ar
    10    25    26   ar
    11    26    30    1
    12    30    31    1
    13    30    32    1
    14    30    33    1
    15    26    27   ar
    16    27    28   ar
    17    28    34    1
    18    34    35    1
    19    34    36    1
    20    34    37    1
    21    28    29   ar
    22     1     2    1
    23     2     3    1
    24     3     4    1
    25     4     6    1
    26     6     7    1
    27     7     8    1
    28     8     9    1
    29     9    12    1
    30    12    13   ar
    31    13    14   ar
    32    14    15   ar
    33    15    16   ar
    34    16    17    1
    35    16    18   ar
    36     9    10    1
    37    10    11    1
    38     4     5    1
    39     5     1    1
    40    29    24   ar
    41    11     6    1
    42    18    12   ar
    43    21    22    1
@<TRIPOS>MOLECULE
*****
 40 43 0 0 0
SMALL
GASTEIGER

@<TRIPOS>ATOM
      1 C         139.0507  141.4610  160.0196 C.3     1  UNL1        0.0702
      2 C         138.9575  140.6245  158.7780 C.3     1  UNL1        0.0100
      3 C         139.0458  141.5411  157.5939 C.3     1  UNL1        0.0164
      4 C         139.1937  142.9440  158.1037 C.3     1  UNL1        0.0580
      5 C         139.1967  142.8945  159.6028 C.3     1  UNL1        0.0246
      6 N         139.3169  144.1795  157.2620 N.3     1  UNL1       -0.2739
      7 C         138.4601  144.3444  156.0419 C.3     1  UNL1        0.0724
      8 C         138.5833  145.5799  155.2003 C.3     1  UNL1        0.0217
      9 C         139.5633  146.6506  155.5788 C.3     1  UNL1        0.0252
     10 C         140.4201  146.4857  156.7990 C.3     1  UNL1        0.0217
     11 C         140.2969  145.2502  157.6406 C.3     1  UNL1        0.0724
     12 C         139.6865  147.8861  154.7372 C.ar    1  UNL1       -0.0202
     13 C         140.4591  147.8443  153.4522 C.ar    1  UNL1       -0.0041
     14 C         140.5823  149.0798  152.6105 C.ar    1  UNL1        0.0020
     15 C         139.9329  150.3571  153.0539 C.ar    1  UNL1        0.0296
     16 C         139.1602  150.3990  154.3390 C.ar    1  UNL1        0.1398
     17 F         138.5107  151.6763  154.7824 F       1  UNL1       -0.2042
     18 C         139.0370  149.1635  155.1806 C.ar    1  UNL1        0.0254
     19 C         139.1163  142.0223  161.4090 C.2     1  UNL1        0.2218
     20 O         140.4258  142.4981  161.9647 O.2     1  UNL1       -0.2751
     21 N         137.8723  142.1080  162.2429 N.am    1  UNL1       -0.3004
     22 H         137.0128  141.7958  161.8782 H       1  UNL1        0.1497
     23 C         137.9379  142.6693  163.6323 C.3     1  UNL1        0.1163
     24 C         138.5151  141.8477  164.7467 C.ar    1  UNL1       -0.0027
     25 C         138.0481  140.4381  164.9589 C.ar    1  UNL1        0.0012
     26 C         138.6253  139.6166  166.0732 C.ar    1  UNL1        0.0711
     27 C         139.6695  140.2046  166.9754 C.ar    1  UNL1        0.0077
     28 C         140.1365  141.6141  166.7632 C.ar    1  UNL1        0.0711
     29 C         139.5593  142.4357  165.6488 C.ar    1  UNL1        0.0012
     30 C         138.1583  138.2070  166.2855 C.3     1  UNL1        0.4186
     31 F         137.6914  136.7974  166.4976 F       1  UNL1       -0.1659
     32 F         138.9996  137.7542  165.1291 F       1  UNL1       -0.1659
     33 F         137.3171  138.6597  167.4418 F       1  UNL1       -0.1659
     34 C         141.1808  142.2021  167.6653 C.3     1  UNL1        0.4186
     35 F         142.2250  142.7901  168.5675 F       1  UNL1       -0.1659
     36 F         142.1432  141.1288  167.2509 F       1  UNL1       -0.1659
     37 F         140.2183  143.2754  168.0798 F       1  UNL1       -0.1659
     38 C         140.1212  139.5084  161.3579 C.3     1  UNL1        0.0005
     39 C         138.9185  140.1449  160.7268 C.3     1  UNL1        0.0082
     40 C         137.5834  139.4652  160.8030 C.3     1  UNL1        0.0005
@<TRIPOS>BOND
     1    38    39    1
     2    39    40    1
     3     1    39    1
     4     1    19    1
     5    19    20    2
     6    19    21   am
     7    21    23    1
     8    23    24    1
     9    24    25   ar
    10    25    26   ar
    11    26    30    1
    12    30    31    1
    13    30    32    1
    14    30    33    1
    15    26    27   ar
    16    27    28   ar
    17    28    34    1
    18    34    35    1
    19    34    36    1
    20    34    37    1
    21    28    29   ar
    22     1     2    1
    23     2     3    1
    24     3     4    1
    25     4     6    1
    26     6     7    1
    27     7     8    1
    28     8     9    1
    29     9    12    1
    30    12    13   ar
    31    13    14   ar
    32    14    15   ar
    33    15    16   ar
    34    16    17    1
    35    16    18   ar
    36     9    10    1
    37    10    11    1
    38     4     5    1
    39     5     1    1
    40    29    24   ar
    41    11     6    1
    42    18    12   ar
    43    21    22    1
@<TRIPOS>MOLECULE
*****
 40 43 0 0 0
SMALL
GASTEIGER

@<TRIPOS>ATOM
      1 C         140.3595  139.5644  158.5437 C.3     1  UNL1        0.0702
      2 C         140.5905  140.2302  157.2196 C.3     1  UNL1        0.0100
      3 C         141.1163  139.1976  156.2671 C.3     1  UNL1        0.0164
      4 C         141.2102  137.8936  157.0025 C.3     1  UNL1        0.0580
      5 C         140.7425  138.1204  158.4096 C.3     1  UNL1        0.0246
      6 N         141.6880  136.5916  156.4312 N.3     1  UNL1       -0.2739
      7 C         140.8784  135.8916  155.3803 C.3     1  UNL1        0.0724
      8 C         141.3561  134.5895  154.8090 C.3     1  UNL1        0.0217
      9 C         142.6436  133.9874  155.2886 C.3     1  UNL1        0.0252
     10 C         143.4532  134.6875  156.3396 C.3     1  UNL1        0.0217
     11 C         142.9754  135.9896  156.9109 C.3     1  UNL1        0.0724
     12 C         143.1213  132.6854  154.7173 C.ar    1  UNL1       -0.0202
     13 C         142.7162  132.2811  153.3307 C.ar    1  UNL1       -0.0041
     14 C         143.1940  130.9791  152.7594 C.ar    1  UNL1        0.0020
     15 C         144.0768  130.0813  153.5746 C.ar    1  UNL1        0.0296
     16 C         144.4820  130.4856  154.9613 C.ar    1  UNL1        0.1398
     17 F         145.3648  129.5878  155.7765 F       1  UNL1       -0.2042
     18 C         144.0042  131.7877  155.5326 C.ar    1  UNL1        0.0254
     19 C         140.0342  139.1839  159.9577 C.2     1  UNL1        0.2218
     20 O         141.1094  139.1944  161.0035 O.2     1  UNL1       -0.2751
     21 N         138.6336  138.7929  160.3259 N.am    1  UNL1       -0.3004
     22 H         137.9279  138.7860  159.6395 H       1  UNL1        0.1497
     23 C         138.3083  138.4123  161.7399 C.3     1  UNL1        0.1163
     24 C         138.2762  139.4623  162.8107 C.ar    1  UNL1       -0.0027
     25 C         138.5193  139.0823  164.2412 C.ar    1  UNL1        0.0012
     26 C         138.4872  140.1322  165.3120 C.ar    1  UNL1        0.0711
     27 C         138.2120  141.5622  164.9522 C.ar    1  UNL1        0.0077
     28 C         137.9689  141.9423  163.5217 C.ar    1  UNL1        0.0711
     29 C         138.0010  140.8923  162.4509 C.ar    1  UNL1        0.0012
     30 C         138.7302  139.7522  166.7426 C.3     1  UNL1        0.4186
     31 F         138.9733  139.3723  168.1731 F       1  UNL1       -0.1659
     32 F         139.7900  140.8090  166.8432 F       1  UNL1       -0.1659
     33 F         137.6705  138.6955  166.6420 F       1  UNL1       -0.1659
     34 C         137.6938  143.3722  163.1619 C.3     1  UNL1        0.4186
     35 F         137.4186  144.8022  162.8021 F       1  UNL1       -0.1659
     36 F         137.7298  143.0129  161.7060 F       1  UNL1       -0.1659
     37 F         137.6577  143.7316  164.6177 F       1  UNL1       -0.1659
     38 C         138.5071  141.3804  158.6869 C.3     1  UNL1        0.0005
     39 C         139.9085  140.9289  158.9735 C.3     1  UNL1        0.0082
     40 C         140.8589  141.8419  159.6899 C.3     1  UNL1        0.0005
@<TRIPOS>BOND
     1    38    39    1
     2    39    40    1
     3     1    39    1
     4     1    19    1
     5    19    20    2
     6    19    21   am
     7    21    23    1
     8    23    24    1
     9    24    25   ar
    10    25    26   ar
    11    26    30    1
    12    30    31    1
    13    30    32    1
    14    30    33    1
    15    26    27   ar
    16    27    28   ar
    17    28    34    1
    18    34    35    1
    19    34    36    1
    20    34    37    1
    21    28    29   ar
    22     1     2    1
    23     2     3    1
    24     3     4    1
    25     4     6    1
    26     6     7    1
    27     7     8    1
    28     8     9    1
    29     9    12    1
    30    12    13   ar
    31    13    14   ar
    32    14    15   ar
    33    15    16   ar
    34    16    17    1
    35    16    18   ar
    36     9    10    1
    37    10    11    1
    38     4     5    1
    39     5     1    1
    40    29    24   ar
    41    11     6    1
    42    18    12   ar
    43    21    22    1
@<TRIPOS>MOLECULE
*****
 40 43 0 0 0
SMALL
GASTEIGER

@<TRIPOS>ATOM
      1 C         140.0405  139.8254  157.8825 C.3     1  UNL1        0.0702
      2 C         140.9241  140.4334  156.8338 C.3     1  UNL1        0.0100
      3 C         141.6681  139.3226  156.1538 C.3     1  UNL1        0.0164
      4 C         141.2443  138.0281  156.7821 C.3     1  UNL1        0.0580
      5 C         140.2384  138.3389  157.8505 C.3     1  UNL1        0.0246
      6 N         141.7395  136.6626  156.4077 N.3     1  UNL1       -0.2739
      7 C         141.0150  135.8612  155.3672 C.3     1  UNL1        0.0724
      8 C         141.5101  134.4957  154.9928 C.3     1  UNL1        0.0217
      9 C         142.7300  133.9315  155.6590 C.3     1  UNL1        0.0252
     10 C         143.4545  134.7330  156.6996 C.3     1  UNL1        0.0217
     11 C         142.9593  136.0985  157.0739 C.3     1  UNL1        0.0724
     12 C         143.2251  132.5660  155.2846 C.ar    1  UNL1       -0.0202
     13 C         144.4249  131.9880  155.9749 C.ar    1  UNL1       -0.0041
     14 C         144.9201  130.6225  155.6005 C.ar    1  UNL1        0.0020
     15 C         144.2155  129.8350  154.5359 C.ar    1  UNL1        0.0296
     16 C         143.0157  130.4131  153.8456 C.ar    1  UNL1        0.1398
     17 F         142.3112  129.6256  152.7809 F       1  UNL1       -0.2042
     18 C         142.5205  131.7786  154.2199 C.ar    1  UNL1        0.0254
     19 C         139.0733  139.5147  158.9860 C.2     1  UNL1        0.2218
     20 O         137.6347  139.9202  158.8588 O.2     1  UNL1       -0.2751
     21 N         139.5446  138.7984  160.2169 N.am    1  UNL1       -0.3004
     22 H         140.4887  138.5323  160.3004 H       1  UNL1        0.1497
     23 C         138.5773  138.4877  161.3204 C.3     1  UNL1        0.1163
     24 C         138.4110  139.4446  162.4636 C.ar    1  UNL1       -0.0027
     25 C         138.1206  140.8914  162.1944 C.ar    1  UNL1        0.0012
     26 C         137.9543  141.8482  163.3376 C.ar    1  UNL1        0.0711
     27 C         138.0785  141.3583  164.7499 C.ar    1  UNL1        0.0077
     28 C         138.3690  139.9115  165.0190 C.ar    1  UNL1        0.0711
     29 C         138.5352  138.9547  163.8759 C.ar    1  UNL1        0.0012
     30 C         137.6638  143.2950  163.0685 C.3     1  UNL1        0.4186
     31 F         137.3734  144.7418  162.7994 F       1  UNL1       -0.1659
     32 F         137.5744  143.5514  164.5436 F       1  UNL1       -0.1659
     33 F         137.7532  143.0386  161.5933 F       1  UNL1       -0.1659
     34 C         138.4931  139.4216  166.4313 C.3     1  UNL1        0.4186
     35 F         138.6173  138.9317  167.8436 F       1  UNL1       -0.1659
     36 F         139.1630  140.7068  166.8182 F       1  UNL1       -0.1659
     37 F         137.8233  138.1364  166.0444 F       1  UNL1       -0.1659
     38 C         140.1342  141.9501  159.3747 C.3     1  UNL1        0.0005
     39 C         139.6404  141.2470  158.1452 C.3     1  UNL1        0.0082
     40 C         138.7464  141.9655  157.1784 C.3     1  UNL1        0.0005
@<TRIPOS>BOND
     1    38    39    1
     2    39    40    1
     3     1    39    1
     4     1    19    1
     5    19    20    2
     6    19    21   am
     7    21    23    1
     8    23    24    1
     9    24    25   ar
    10    25    26   ar
    11    26    30    1
    12    30    31    1
    13    30    32    1
    14    30    33    1
    15    26    27   ar
    16    27    28   ar
    17    28    34    1
    18    34    35    1
    19    34    36    1
    20    34    37    1
    21    28    29   ar
    22     1     2    1
    23     2     3    1
    24     3     4    1
    25     4     6    1
    26     6     7    1
    27     7     8    1
    28     8     9    1
    29     9    12    1
    30    12    13   ar
    31    13    14   ar
    32    14    15   ar
    33    15    16   ar
    34    16    17    1
    35    16    18   ar
    36     9    10    1
    37    10    11    1
    38     4     5    1
    39     5     1    1
    40    29    24   ar
    41    11     6    1
    42    18    12   ar
    43    21    22    1
@<TRIPOS>MOLECULE
*****
 40 43 0 0 0
SMALL
GASTEIGER

@<TRIPOS>ATOM
      1 C         143.5358  141.9293  162.6972 C.3     1  UNL1        0.0702
      2 C         144.2931  141.1342  161.6753 C.3     1  UNL1        0.0100
      3 C         143.9836  141.7036  160.3226 C.3     1  UNL1        0.0164
      4 C         143.0350  142.8506  160.5084 C.3     1  UNL1        0.0580
      5 C         142.7582  142.9900  161.9760 C.3     1  UNL1        0.0246
      6 N         142.4635  143.7076  159.4180 N.3     1  UNL1       -0.2739
      7 C         142.9760  143.5764  158.0144 C.3     1  UNL1        0.0724
      8 C         142.4046  144.4334  156.9241 C.3     1  UNL1        0.0217
      9 C         141.3205  145.4217  157.2373 C.3     1  UNL1        0.0252
     10 C         140.8079  145.5529  158.6410 C.3     1  UNL1        0.0217
     11 C         141.3794  144.6959  159.7313 C.3     1  UNL1        0.0724
     12 C         140.7490  146.2787  156.1469 C.ar    1  UNL1       -0.0202
     13 C         141.2164  146.1035  154.7325 C.ar    1  UNL1       -0.0041
     14 C         140.6449  146.9605  153.6421 C.ar    1  UNL1        0.0020
     15 C         139.6060  147.9928  153.9662 C.ar    1  UNL1        0.0296
     16 C         139.1386  148.1680  155.3808 C.ar    1  UNL1        0.1398
     17 F         138.0996  149.2003  155.7049 F       1  UNL1       -0.2042
     18 C         139.7100  147.3110  156.4711 C.ar    1  UNL1        0.0254
     19 C         142.9138  142.5288  163.9234 C.2     1  UNL1        0.2218
     20 O         143.7396  143.3757  164.8457 O.2     1  UNL1       -0.2751
     21 N         141.4658  142.2813  164.2274 N.am    1  UNL1       -0.3004
     22 H         140.9238  141.7254  163.6221 H       1  UNL1        0.1497
     23 C         140.8438  142.8808  165.4537 C.3     1  UNL1        0.1163
     24 C         140.3237  141.9901  166.5428 C.ar    1  UNL1       -0.0027
     25 C         139.5175  140.7737  166.1959 C.ar    1  UNL1        0.0012
     26 C         138.9974  139.8830  167.2850 C.ar    1  UNL1        0.0711
     27 C         139.2835  140.2087  168.7210 C.ar    1  UNL1        0.0077
     28 C         140.0897  141.4251  169.0679 C.ar    1  UNL1        0.0711
     29 C         140.6098  142.3158  167.9788 C.ar    1  UNL1        0.0012
     30 C         138.1911  138.6666  166.9381 C.3     1  UNL1        0.4186
     31 F         137.3849  137.4502  166.5912 F       1  UNL1       -0.1659
     32 F         138.9028  138.5704  165.6212 F       1  UNL1       -0.1659
     33 F         137.4794  138.7627  168.2550 F       1  UNL1       -0.1659
     34 C         140.3759  141.7508  170.5038 C.3     1  UNL1        0.4186
     35 F         140.6620  142.0765  171.9398 F       1  UNL1       -0.1659
     36 F         139.9915  143.1795  170.2564 F       1  UNL1       -0.1659
     37 F         140.7602  140.3222  170.7513 F       1  UNL1       -0.1659
     38 C         143.3642  139.9407  164.3603 C.3     1  UNL1        0.0005
     39 C         144.1833  140.9938  163.6748 C.3     1  UNL1        0.0082
     40 C         145.6499  141.1116  163.9669 C.3     1  UNL1        0.0005
@<TRIPOS>BOND
     1    38    39    1
     2    39    40    1
     3     1    39    1
     4     1    19    1
     5    19    20    2
     6    19    21   am
     7    21    23    1
     8    23    24    1
     9    24    25   ar
    10    25    26   ar
    11    26    30    1
    12    30    31    1
    13    30    32    1
    14    30    33    1
    15    26    27   ar
    16    27    28   ar
    17    28    34    1
    18    34    35    1
    19    34    36    1
    20    34    37    1
    21    28    29   ar
    22     1     2    1
    23     2     3    1
    24     3     4    1
    25     4     6    1
    26     6     7    1
    27     7     8    1
    28     8     9    1
    29     9    12    1
    30    12    13   ar
    31    13    14   ar
    32    14    15   ar
    33    15    16   ar
    34    16    17    1
    35    16    18   ar
    36     9    10    1
    37    10    11    1
    38     4     5    1
    39     5     1    1
    40    29    24   ar
    41    11     6    1
    42    18    12   ar
    43    21    22    1
@<TRIPOS>MOLECULE
*****
 40 43 0 0 0
SMALL
GASTEIGER

@<TRIPOS>ATOM
      1 C         143.4292  142.8662  163.2459 C.3     1  UNL1        0.0702
      2 C         144.4884  143.4142  162.3362 C.3     1  UNL1        0.0100
      3 C         144.4934  142.5913  161.0821 C.3     1  UNL1        0.0164
      4 C         143.4373  141.5347  161.2167 C.3     1  UNL1        0.0580
      5 C         142.7796  141.7046  162.5541 C.3     1  UNL1        0.0246
      6 N         143.0985  140.4914  160.1937 N.3     1  UNL1       -0.2739
      7 C         142.2359  139.3236  160.5706 C.3     1  UNL1        0.0724
      8 C         141.8970  138.2803  159.5476 C.3     1  UNL1        0.0217
      9 C         142.4207  138.4048  158.1475 C.3     1  UNL1        0.0252
     10 C         143.2834  139.5726  157.7705 C.3     1  UNL1        0.0217
     11 C         143.6223  140.6159  158.7936 C.3     1  UNL1        0.0724
     12 C         142.0819  137.3614  157.1244 C.ar    1  UNL1       -0.0202
     13 C         140.9694  137.6024  156.1476 C.ar    1  UNL1       -0.0041
     14 C         140.6305  136.5591  155.1245 C.ar    1  UNL1        0.0020
     15 C         141.4041  135.2748  155.0783 C.ar    1  UNL1        0.0296
     16 C         142.5167  135.0339  156.0552 C.ar    1  UNL1        0.1398
     17 F         143.2904  133.7496  156.0090 F       1  UNL1       -0.2042
     18 C         142.8556  136.0772  157.0783 C.ar    1  UNL1        0.0254
     19 C         142.4636  142.5470  164.3485 C.2     1  UNL1        0.2218
     20 O         141.2580  143.4132  164.5637 O.2     1  UNL1       -0.2751
     21 N         142.7036  141.3617  165.2359 N.am    1  UNL1       -0.3004
     22 H         143.4948  140.7932  165.0947 H       1  UNL1        0.1497
     23 C         141.7380  141.0425  166.3385 C.3     1  UNL1        0.1163
     24 C         140.5653  140.1457  166.0723 C.ar    1  UNL1       -0.0027
     25 C         140.3443  139.5883  164.6974 C.ar    1  UNL1        0.0012
     26 C         139.1718  138.6915  164.4313 C.ar    1  UNL1        0.0711
     27 C         138.2202  138.3523  165.5400 C.ar    1  UNL1        0.0077
     28 C         138.4411  138.9097  166.9149 C.ar    1  UNL1        0.0711
     29 C         139.6137  139.8064  167.1811 C.ar    1  UNL1        0.0012
     30 C         138.9507  138.1340  163.0563 C.3     1  UNL1        0.4186
     31 F         138.7297  137.5765  161.6815 F       1  UNL1       -0.1659
     32 F         140.1144  137.2066  163.2454 F       1  UNL1       -0.1659
     33 F         137.7871  139.0614  162.8673 F       1  UNL1       -0.1659
     34 C         137.4895  138.5704  168.0237 C.3     1  UNL1        0.4186
     35 F         136.5379  138.2312  169.1324 F       1  UNL1       -0.1659
     36 F         138.0643  139.6781  168.8560 F       1  UNL1       -0.1659
     37 F         136.9147  137.4628  167.1914 F       1  UNL1       -0.1659
     38 C         143.5253  145.3874  163.8654 C.3     1  UNL1        0.0005
     39 C         143.8769  143.9611  164.1683 C.3     1  UNL1        0.0082
     40 C         144.6762  143.6295  165.3936 C.3     1  UNL1        0.0005
@<TRIPOS>BOND
     1    38    39    1
     2    39    40    1
     3     1    39    1
     4     1    19    1
     5    19    20    2
     6    19    21   am
     7    21    23    1
     8    23    24    1
     9    24    25   ar
    10    25    26   ar
    11    26    30    1
    12    30    31    1
    13    30    32    1
    14    30    33    1
    15    26    27   ar
    16    27    28   ar
    17    28    34    1
    18    34    35    1
    19    34    36    1
    20    34    37    1
    21    28    29   ar
    22     1     2    1
    23     2     3    1
    24     3     4    1
    25     4     6    1
    26     6     7    1
    27     7     8    1
    28     8     9    1
    29     9    12    1
    30    12    13   ar
    31    13    14   ar
    32    14    15   ar
    33    15    16   ar
    34    16    17    1
    35    16    18   ar
    36     9    10    1
    37    10    11    1
    38     4     5    1
    39     5     1    1
    40    29    24   ar
    41    11     6    1
    42    18    12   ar
    43    21    22    1
@<TRIPOS>MOLECULE
*****
 40 43 0 0 0
SMALL
GASTEIGER

@<TRIPOS>ATOM
      1 C         140.2092  143.5451  162.7344 C.3     1  UNL1        0.0702
      2 C         139.8323  144.7970  161.9992 C.3     1  UNL1        0.0100
      3 C         140.6551  144.8646  160.7469 C.3     1  UNL1        0.0164
      4 C         141.5406  143.6545  160.7081 C.3     1  UNL1        0.0580
      5 C         141.2650  142.8390  161.9365 C.3     1  UNL1        0.0246
      6 N         142.5282  143.3189  159.6302 N.3     1  UNL1       -0.2739
      7 C         143.8669  142.7466  159.9912 C.3     1  UNL1        0.0724
      8 C         144.8545  142.4109  158.9133 C.3     1  UNL1        0.0217
      9 C         144.5035  142.6475  157.4743 C.3     1  UNL1        0.0252
     10 C         143.1648  143.2199  157.1133 C.3     1  UNL1        0.0217
     11 C         142.1771  143.5556  158.1912 C.3     1  UNL1        0.0724
     12 C         145.4912  142.3119  156.3964 C.ar    1  UNL1       -0.0202
     13 C         145.0101  141.9852  155.0137 C.ar    1  UNL1       -0.0041
     14 C         145.9978  141.6495  153.9358 C.ar    1  UNL1        0.0020
     15 C         147.4665  141.6405  154.2406 C.ar    1  UNL1        0.0296
     16 C         147.9475  141.9672  155.6234 C.ar    1  UNL1        0.1398
     17 F         149.4162  141.9582  155.9282 F       1  UNL1       -0.2042
     18 C         146.9599  142.3029  156.7013 C.ar    1  UNL1        0.0254
     19 C         140.3726  142.3904  163.6777 C.2     1  UNL1        0.2218
     20 O         139.2235  141.4598  163.9302 O.2     1  UNL1       -0.2751
     21 N         141.6851  142.1661  164.3685 N.am    1  UNL1       -0.3004
     22 H         142.4393  142.7768  164.2028 H       1  UNL1        0.1497
     23 C         141.8485  141.0114  165.3118 C.3     1  UNL1        0.1163
     24 C         141.4391  141.1524  166.7480 C.ar    1  UNL1       -0.0027
     25 C         142.2675  141.9788  167.6864 C.ar    1  UNL1        0.0012
     26 C         141.8581  142.1197  169.1225 C.ar    1  UNL1        0.0711
     27 C         140.6202  141.4343  169.6202 C.ar    1  UNL1        0.0077
     28 C         139.7917  140.6078  168.6818 C.ar    1  UNL1        0.0711
     29 C         140.2012  140.4669  167.2457 C.ar    1  UNL1        0.0012
     30 C         142.6866  142.9462  170.0610 C.3     1  UNL1        0.4186
     31 F         143.5150  143.7727  170.9994 F       1  UNL1       -0.1659
     32 F         141.6586  144.0372  170.0076 F       1  UNL1       -0.1659
     33 F         143.7145  141.8552  170.1144 F       1  UNL1       -0.1659
     34 C         138.5538  139.9224  169.1796 C.3     1  UNL1        0.4186
     35 F         137.3159  139.2369  169.6773 F       1  UNL1       -0.1659
     36 F         138.4371  139.1874  167.8772 F       1  UNL1       -0.1659
     37 F         138.6705  140.6573  170.4820 F       1  UNL1       -0.1659
     38 C         137.7388  144.0683  163.3454 C.3     1  UNL1        0.0005
     39 C         139.1876  144.0098  163.7296 C.3     1  UNL1        0.0082
     40 C         139.6147  144.4160  165.1089 C.3     1  UNL1        0.0005
@<TRIPOS>BOND
     1    38    39    1
     2    39    40    1
     3     1    39    1
     4     1    19    1
     5    19    20    2
     6    19    21   am
     7    21    23    1
     8    23    24    1
     9    24    25   ar
    10    25    26   ar
    11    26    30    1
    12    30    31    1
    13    30    32    1
    14    30    33    1
    15    26    27   ar
    16    27    28   ar
    17    28    34    1
    18    34    35    1
    19    34    36    1
    20    34    37    1
    21    28    29   ar
    22     1     2    1
    23     2     3    1
    24     3     4    1
    25     4     6    1
    26     6     7    1
    27     7     8    1
    28     8     9    1
    29     9    12    1
    30    12    13   ar
    31    13    14   ar
    32    14    15   ar
    33    15    16   ar
    34    16    17    1
    35    16    18   ar
    36     9    10    1
    37    10    11    1
    38     4     5    1
    39     5     1    1
    40    29    24   ar
    41    11     6    1
    42    18    12   ar
    43    21    22    1
@<TRIPOS>MOLECULE
*****
 40 43 0 0 0
SMALL
GASTEIGER

@<TRIPOS>ATOM
      1 C         141.4890  140.0929  161.0655 C.3     1  UNL1        0.0702
      2 C         140.7285  139.5209  159.9060 C.3     1  UNL1        0.0100
      3 C         141.5417  139.7403  158.6649 C.3     1  UNL1        0.0164
      4 C         142.8047  140.4479  159.0572 C.3     1  UNL1        0.0580
      5 C         142.7721  140.6658  160.5410 C.3     1  UNL1        0.0246
      6 N         143.9069  140.8644  158.1289 N.3     1  UNL1       -0.2739
      7 C         144.7596  142.0525  158.4624 C.3     1  UNL1        0.0724
      8 C         145.8617  142.4690  157.5341 C.3     1  UNL1        0.0217
      9 C         146.1112  141.6974  156.2722 C.3     1  UNL1        0.0252
     10 C         145.2584  140.5092  155.9387 C.3     1  UNL1        0.0217
     11 C         144.1563  140.0927  156.8670 C.3     1  UNL1        0.0724
     12 C         147.2133  142.1139  155.3439 C.ar    1  UNL1       -0.0202
     13 C         146.9243  143.0525  154.2101 C.ar    1  UNL1       -0.0041
     14 C         148.0265  143.4690  153.2818 C.ar    1  UNL1        0.0020
     15 C         149.4176  142.9470  153.4872 C.ar    1  UNL1        0.0296
     16 C         149.7066  142.0083  154.6211 C.ar    1  UNL1        0.1398
     17 F         151.0977  141.4862  154.8265 F       1  UNL1       -0.2042
     18 C         148.6045  141.5918  155.5494 C.ar    1  UNL1        0.0254
     19 C         142.0036  140.5659  162.3927 C.2     1  UNL1        0.2218
     20 O         141.8857  142.0127  162.7705 O.2     1  UNL1       -0.2751
     21 N         142.6363  139.5920  163.3421 N.am    1  UNL1       -0.3004
     22 H         142.7137  138.6423  163.0941 H       1  UNL1        0.1497
     23 C         143.1510  140.0649  164.6693 C.3     1  UNL1        0.1163
     24 C         142.1935  140.3358  165.7917 C.ar    1  UNL1       -0.0027
     25 C         140.8669  139.6368  165.8312 C.ar    1  UNL1        0.0012
     26 C         139.9095  139.9078  166.9536 C.ar    1  UNL1        0.0711
     27 C         140.2787  140.8777  168.0366 C.ar    1  UNL1        0.0077
     28 C         141.6052  141.5767  167.9972 C.ar    1  UNL1        0.0711
     29 C         142.5626  141.3058  166.8747 C.ar    1  UNL1        0.0012
     30 C         138.5829  139.2087  166.9931 C.3     1  UNL1        0.4186
     31 F         137.2563  138.5097  167.0325 F       1  UNL1       -0.1659
     32 F         138.7063  138.8921  165.5321 F       1  UNL1       -0.1659
     33 F         138.4594  139.5254  168.4540 F       1  UNL1       -0.1659
     34 C         141.9744  142.5467  169.0802 C.3     1  UNL1        0.4186
     35 F         142.3435  143.5166  170.1632 F       1  UNL1       -0.1659
     36 F         140.5707  142.4933  169.6064 F       1  UNL1       -0.1659
     37 F         143.3780  142.6001  168.5540 F       1  UNL1       -0.1659
     38 C         140.1527  138.1589  162.1718 C.3     1  UNL1        0.0005
     39 C         140.3134  139.6189  161.8676 C.3     1  UNL1        0.0082
     40 C         139.2984  140.6049  162.3654 C.3     1  UNL1        0.0005
@<TRIPOS>BOND
     1    38    39    1
     2    39    40    1
     3     1    39    1
     4     1    19    1
     5    19    20    2
     6    19    21   am
     7    21    23    1
     8    23    24    1
     9    24    25   ar
    10    25    26   ar
    11    26    30    1
    12    30    31    1
    13    30    32    1
    14    30    33    1
    15    26    27   ar
    16    27    28   ar
    17    28    34    1
    18    34    35    1
    19    34    36    1
    20    34    37    1
    21    28    29   ar
    22     1     2    1
    23     2     3    1
    24     3     4    1
    25     4     6    1
    26     6     7    1
    27     7     8    1
    28     8     9    1
    29     9    12    1
    30    12    13   ar
    31    13    14   ar
    32    14    15   ar
    33    15    16   ar
    34    16    17    1
    35    16    18   ar
    36     9    10    1
    37    10    11    1
    38     4     5    1
    39     5     1    1
    40    29    24   ar
    41    11     6    1
    42    18    12   ar
    43    21    22    1
