@<TRIPOS>MOLECULE
*****
 34 38 0 0 0
SMALL
GASTEIGER

@<TRIPOS>ATOM
      1 C         138.0479  139.8448  160.4546 C.ar    1  UNL1        0.0503
      2 C         138.9475  138.6459  160.5112 C.ar    1  UNL1        0.0143
      3 C         139.6979  138.3302  161.7711 C.ar    1  UNL1       -0.0029
      4 C         139.5487  139.2133  162.9743 C.ar    1  UNL1       -0.0208
      5 C         138.6491  140.4123  162.9177 C.ar    1  UNL1       -0.0029
      6 C         137.8987  140.7281  161.6578 C.ar    1  UNL1        0.0143
      7 O         139.3177  141.5532  158.3405 O.2     1  UNL1       -0.2727
      8 C         137.9324  141.0148  158.1377 C.2     1  UNL1        0.2485
      9 N         137.2975  140.1606  159.1947 N.am    1  UNL1       -0.2823
     10 H         136.3883  139.8072  159.0616 H       1  UNL1        0.1549
     11 C         137.1820  141.3306  156.8778 C.3     1  UNL1        0.1811
     12 C         137.6565  142.2226  155.7690 C.3     1  UNL1        0.0400
     13 C         136.5931  142.2530  154.7115 C.3     1  UNL1        0.0480
     14 C         135.4615  141.3799  155.1667 C.ar    1  UNL1        0.0577
     15 C         134.1049  140.8592  154.7944 C.ar    1  UNL1        0.0368
     16 C         133.6306  139.9672  155.9032 C.ar    1  UNL1        0.1213
     17 N         134.6939  139.9367  156.9607 N.ar    1  UNL1       -0.1676
     18 N         135.8255  140.8098  156.5055 N.ar    1  UNL1       -0.2480
     19 C         140.2991  138.8976  164.2341 C.3     1  UNL1        0.0420
     20 C         139.6352  139.0760  165.5672 C.3     1  UNL1        0.0585
     21 C         138.2403  138.6532  165.9211 C.3     1  UNL1        0.0175
     22 C         137.9926  139.0245  167.3532 C.3     1  UNL1        0.0199
     23 C         139.2345  139.6768  167.8843 C.3     1  UNL1        0.0856
     24 N         140.2497  139.7086  166.7805 N.3     1  UNL1       -0.2971
     25 H         141.0808  139.1872  167.0595 H       1  UNL1        0.1233
     26 C         139.4274  140.2046  169.2751 C.3     1  UNL1        0.1484
     27 O         138.4409  139.8605  170.3514 O.3     1  UNL1       -0.3786
     28 H         138.7113  140.2790  171.1837 H       1  UNL1        0.2108
     29 C         140.6067  141.0765  169.5896 C.ar    1  UNL1        0.0247
     30 C         141.9816  140.4810  169.6623 C.ar    1  UNL1        0.0012
     31 C         143.1609  141.3529  169.9768 C.ar    1  UNL1        0.0204
     32 C         142.9655  142.8203  170.2186 C.ar    1  UNL1        0.0989
     33 N         141.5906  143.4158  170.1458 N.ar    1  UNL1       -0.2426
     34 C         140.4113  142.5439  169.8314 C.ar    1  UNL1        0.0969
@<TRIPOS>BOND
     1     7     8    2
     2     8     9   am
     3     9     1    1
     4     1     2   ar
     5     2     3   ar
     6     3     4   ar
     7     4    19    1
     8    20    19    1
     9    20    21    1
    10    21    22    1
    11    23    22    1
    12    23    26    1
    13    26    27    1
    14    26    29    1
    15    29    30   ar
    16    30    31   ar
    17    31    32   ar
    18    32    33   ar
    19    33    34   ar
    20    23    24    1
    21     4     5   ar
    22     5     6   ar
    23    11     8    1
    24    11    12    1
    25    12    13    1
    26    13    14    1
    27    14    15   ar
    28    15    16   ar
    29    16    17   ar
    30    17    18   ar
    31     6     1   ar
    32    18    11    1
    33    24    20    1
    34    18    14   ar
    35    34    29   ar
    36     9    10    1
    37    27    28    1
    38    24    25    1
@<TRIPOS>MOLECULE
*****
 34 38 0 0 0
SMALL
GASTEIGER

@<TRIPOS>ATOM
      1 C         137.7725  139.5827  161.0548 C.ar    1  UNL1        0.0503
      2 C         137.6221  140.5873  162.1585 C.ar    1  UNL1        0.0143
      3 C         138.0968  140.2575  163.5426 C.ar    1  UNL1       -0.0029
      4 C         138.7220  138.9232  163.8231 C.ar    1  UNL1       -0.0208
      5 C         138.8725  137.9186  162.7193 C.ar    1  UNL1       -0.0029
      6 C         138.3978  138.2483  161.3352 C.ar    1  UNL1        0.0143
      7 O         139.4574  141.2973  159.2598 O.2     1  UNL1       -0.2727
      8 C         138.1403  140.7698  158.7731 C.2     1  UNL1        0.2485
      9 N         137.2978  139.9125  159.6706 N.am    1  UNL1       -0.2823
     10 H         136.4333  139.5663  159.3512 H       1  UNL1        0.1549
     11 C         137.6655  141.0995  157.3890 C.3     1  UNL1        0.1811
     12 C         138.4417  141.8469  156.3453 C.3     1  UNL1        0.0400
     13 C         137.5871  141.9491  155.1168 C.3     1  UNL1        0.0480
     14 C         136.2828  141.2649  155.4011 C.ar    1  UNL1        0.0577
     15 C         134.9487  140.9052  154.8175 C.ar    1  UNL1        0.0368
     16 C         134.1726  140.1578  155.8612 C.ar    1  UNL1        0.1213
     17 N         135.0271  140.0556  157.0897 N.ar    1  UNL1       -0.1676
     18 N         136.3313  140.7398  156.8054 N.ar    1  UNL1       -0.2480
     19 C         139.1968  138.5935  165.2072 C.3     1  UNL1        0.0420
     20 C         139.9998  139.5950  165.9832 C.3     1  UNL1        0.0585
     21 C         139.7304  140.0419  167.3894 C.3     1  UNL1        0.0175
     22 C         140.7773  141.0485  167.7645 C.3     1  UNL1        0.0199
     23 C         141.6936  141.2238  166.5900 C.3     1  UNL1        0.0856
     24 N         141.2131  140.3255  165.4891 N.3     1  UNL1       -0.2971
     25 H         141.9436  139.6571  165.2440 H       1  UNL1        0.1233
     26 C         142.8819  142.1371  166.5273 C.3     1  UNL1        0.1484
     27 O         143.5198  142.6258  167.7939 O.3     1  UNL1       -0.3786
     28 H         144.2694  143.2021  167.5770 H       1  UNL1        0.2108
     29 C         143.4323  142.5617  165.1982 C.ar    1  UNL1        0.0247
     30 C         144.5755  141.8087  164.5846 C.ar    1  UNL1        0.0012
     31 C         145.1259  142.2333  163.2554 C.ar    1  UNL1        0.0204
     32 C         144.5332  143.4108  162.5397 C.ar    1  UNL1        0.0989
     33 N         143.3900  144.1637  163.1532 N.ar    1  UNL1       -0.2426
     34 C         142.8396  143.7391  164.4824 C.ar    1  UNL1        0.0969
@<TRIPOS>BOND
     1     7     8    2
     2     8     9   am
     3     9     1    1
     4     1     2   ar
     5     2     3   ar
     6     3     4   ar
     7     4    19    1
     8    20    19    1
     9    20    21    1
    10    21    22    1
    11    23    22    1
    12    23    26    1
    13    26    27    1
    14    26    29    1
    15    29    30   ar
    16    30    31   ar
    17    31    32   ar
    18    32    33   ar
    19    33    34   ar
    20    23    24    1
    21     4     5   ar
    22     5     6   ar
    23    11     8    1
    24    11    12    1
    25    12    13    1
    26    13    14    1
    27    14    15   ar
    28    15    16   ar
    29    16    17   ar
    30    17    18   ar
    31     6     1   ar
    32    18    11    1
    33    24    20    1
    34    18    14   ar
    35    34    29   ar
    36     9    10    1
    37    27    28    1
    38    24    25    1
@<TRIPOS>MOLECULE
*****
 34 38 0 0 0
SMALL
GASTEIGER

@<TRIPOS>ATOM
      1 C         142.4963  138.5459  157.8901 C.ar    1  UNL1        0.0503
      2 C         142.1492  139.6043  156.8856 C.ar    1  UNL1        0.0143
      3 C         142.4700  141.0419  157.1696 C.ar    1  UNL1       -0.0029
      4 C         143.1377  141.4209  158.4581 C.ar    1  UNL1       -0.0208
      5 C         143.4848  140.3624  159.4627 C.ar    1  UNL1       -0.0029
      6 C         143.1641  138.9249  159.1787 C.ar    1  UNL1        0.0143
      7 O         144.2608  136.9477  156.0646 O.2     1  UNL1       -0.2727
      8 C         143.0579  136.3092  156.6933 C.2     1  UNL1        0.2485
      9 N         142.1756  137.1083  157.6060 N.am    1  UNL1       -0.2823
     10 H         141.3860  136.6893  158.0187 H       1  UNL1        0.1549
     11 C         142.7372  134.8717  156.4093 C.3     1  UNL1        0.1811
     12 C         141.6333  134.3728  155.5246 C.3     1  UNL1        0.0400
     13 C         141.6779  132.8734  155.5286 C.3     1  UNL1        0.0480
     14 C         142.8094  132.4457  156.4157 C.ar    1  UNL1        0.0577
     15 C         143.5362  131.2547  156.9664 C.ar    1  UNL1        0.0368
     16 C         144.6400  131.7537  157.8511 C.ar    1  UNL1        0.1213
     17 N         144.5954  133.2530  157.8471 N.ar    1  UNL1       -0.1676
     18 N         143.4640  133.6807  156.9600 N.ar    1  UNL1       -0.2480
     19 C         143.4584  142.8584  158.7422 C.3     1  UNL1        0.0420
     20 C         142.3795  143.7891  159.2108 C.3     1  UNL1        0.0585
     21 C         141.5593  144.6964  158.3426 C.3     1  UNL1        0.0175
     22 C         140.6042  145.4440  159.2252 C.3     1  UNL1        0.0199
     23 C         140.8342  144.9987  160.6389 C.3     1  UNL1        0.0856
     24 N         141.9314  143.9759  160.6301 N.3     1  UNL1       -0.2971
     25 H         141.5838  143.0922  161.0025 H       1  UNL1        0.1233
     26 C         140.0965  145.4899  161.8491 C.3     1  UNL1        0.1484
     27 O         140.1519  146.9414  162.2234 O.3     1  UNL1       -0.3786
     28 H         139.6249  147.0891  163.0243 H       1  UNL1        0.2108
     29 C         139.3033  144.5296  162.6850 C.ar    1  UNL1        0.0247
     30 C         139.3446  144.6265  164.1814 C.ar    1  UNL1        0.0012
     31 C         138.5515  143.6662  165.0173 C.ar    1  UNL1        0.0204
     32 C         137.7171  142.6090  164.3570 C.ar    1  UNL1        0.0989
     33 N         137.6758  142.5121  162.8606 N.ar    1  UNL1       -0.2426
     34 C         138.4689  143.4724  162.0247 C.ar    1  UNL1        0.0969
@<TRIPOS>BOND
     1     7     8    2
     2     8     9   am
     3     9     1    1
     4     1     2   ar
     5     2     3   ar
     6     3     4   ar
     7     4    19    1
     8    20    19    1
     9    20    21    1
    10    21    22    1
    11    23    22    1
    12    23    26    1
    13    26    27    1
    14    26    29    1
    15    29    30   ar
    16    30    31   ar
    17    31    32   ar
    18    32    33   ar
    19    33    34   ar
    20    23    24    1
    21     4     5   ar
    22     5     6   ar
    23    11     8    1
    24    11    12    1
    25    12    13    1
    26    13    14    1
    27    14    15   ar
    28    15    16   ar
    29    16    17   ar
    30    17    18   ar
    31     6     1   ar
    32    18    11    1
    33    24    20    1
    34    18    14   ar
    35    34    29   ar
    36     9    10    1
    37    27    28    1
    38    24    25    1
@<TRIPOS>MOLECULE
*****
 34 38 0 0 0
SMALL
GASTEIGER

@<TRIPOS>ATOM
      1 C         142.9126  137.8427  161.7672 C.ar    1  UNL1        0.0503
      2 C         141.6752  137.6306  162.5880 C.ar    1  UNL1        0.0143
      3 C         141.5376  138.2991  163.9238 C.ar    1  UNL1       -0.0029
      4 C         142.6373  139.1797  164.4386 C.ar    1  UNL1       -0.0208
      5 C         143.8748  139.3918  163.6178 C.ar    1  UNL1       -0.0029
      6 C         144.0125  138.7233  162.2821 C.ar    1  UNL1        0.0143
      7 O         142.0857  139.2903  159.2730 O.2     1  UNL1       -0.2727
      8 C         142.6368  137.8980  159.1844 C.2     1  UNL1        0.2485
      9 N         143.0503  137.1742  160.4315 N.am    1  UNL1       -0.2823
     10 H         143.4120  136.2604  160.3733 H       1  UNL1        0.1549
     11 C         142.7745  137.2295  157.8486 C.3     1  UNL1        0.1811
     12 C         142.5712  137.8797  156.5122 C.3     1  UNL1        0.0400
     13 C         142.8106  136.8454  155.4524 C.3     1  UNL1        0.0480
     14 C         143.1619  135.5561  156.1339 C.ar    1  UNL1        0.0577
     15 C         143.5270  134.1202  155.9000 C.ar    1  UNL1        0.0368
     16 C         143.7303  133.4701  157.2365 C.ar    1  UNL1        0.1213
     17 N         143.4908  134.5043  158.2962 N.ar    1  UNL1       -0.1676
     18 N         143.1395  135.7935  157.6148 N.ar    1  UNL1       -0.2480
     19 C         142.4997  139.8482  165.7744 C.3     1  UNL1        0.0420
     20 C         141.6594  141.0831  165.9120 C.3     1  UNL1        0.0585
     21 C         141.1501  141.6641  167.1976 C.3     1  UNL1        0.0175
     22 C         140.3568  142.8939  166.8683 C.3     1  UNL1        0.0199
     23 C         140.3758  143.0728  165.3792 C.3     1  UNL1        0.0856
     24 N         141.1809  141.9536  164.7881 N.3     1  UNL1       -0.2971
     25 H         141.9797  142.3328  164.2798 H       1  UNL1        0.1233
     26 C         139.7072  144.1770  164.6152 C.3     1  UNL1        0.1484
     27 O         138.9157  145.2215  165.3449 O.3     1  UNL1       -0.3786
     28 H         138.5530  145.8563  164.7075 H       1  UNL1        0.2108
     29 C         139.8300  144.2367  163.1214 C.ar    1  UNL1        0.0247
     30 C         140.9443  145.0187  162.4912 C.ar    1  UNL1        0.0012
     31 C         141.0672  145.0784  160.9974 C.ar    1  UNL1        0.0204
     32 C         140.0758  144.3562  160.1338 C.ar    1  UNL1        0.0989
     33 N         138.9616  143.5743  160.7641 N.ar    1  UNL1       -0.2426
     34 C         138.8387  143.5145  162.2579 C.ar    1  UNL1        0.0969
@<TRIPOS>BOND
     1     7     8    2
     2     8     9   am
     3     9     1    1
     4     1     2   ar
     5     2     3   ar
     6     3     4   ar
     7     4    19    1
     8    20    19    1
     9    20    21    1
    10    21    22    1
    11    23    22    1
    12    23    26    1
    13    26    27    1
    14    26    29    1
    15    29    30   ar
    16    30    31   ar
    17    31    32   ar
    18    32    33   ar
    19    33    34   ar
    20    23    24    1
    21     4     5   ar
    22     5     6   ar
    23    11     8    1
    24    11    12    1
    25    12    13    1
    26    13    14    1
    27    14    15   ar
    28    15    16   ar
    29    16    17   ar
    30    17    18   ar
    31     6     1   ar
    32    18    11    1
    33    24    20    1
    34    18    14   ar
    35    34    29   ar
    36     9    10    1
    37    27    28    1
    38    24    25    1
@<TRIPOS>MOLECULE
*****
 34 38 0 0 0
SMALL
GASTEIGER

@<TRIPOS>ATOM
      1 C         142.6051  138.3942  157.6880 C.ar    1  UNL1        0.0503
      2 C         142.4679  139.3848  156.5701 C.ar    1  UNL1        0.0143
      3 C         142.8007  140.8289  156.8026 C.ar    1  UNL1       -0.0029
      4 C         143.2706  141.2823  158.1530 C.ar    1  UNL1       -0.0208
      5 C         143.4079  140.2916  159.2710 C.ar    1  UNL1       -0.0029
      6 C         143.0751  138.8476  159.0385 C.ar    1  UNL1        0.0143
      7 O         144.3706  136.7102  155.9423 O.2     1  UNL1       -0.2727
      8 C         143.1552  136.1082  156.5827 C.2     1  UNL1        0.2485
      9 N         142.2724  136.9501  157.4556 N.am    1  UNL1       -0.2823
     10 H         141.4746  136.5550  157.8759 H       1  UNL1        0.1549
     11 C         142.8224  134.6641  156.3503 C.3     1  UNL1        0.1811
     12 C         141.7116  134.1432  155.4872 C.3     1  UNL1        0.0400
     13 C         141.7447  132.6446  155.5436 C.3     1  UNL1        0.0480
     14 C         142.8760  132.2393  156.4414 C.ar    1  UNL1        0.0577
     15 C         143.5956  131.0627  157.0311 C.ar    1  UNL1        0.0368
     16 C         144.7063  131.5837  157.8941 C.ar    1  UNL1        0.1213
     17 N         144.6733  133.0823  157.8378 N.ar    1  UNL1       -0.1676
     18 N         143.5420  133.4875  156.9400 N.ar    1  UNL1       -0.2480
     19 C         143.6034  142.7263  158.3854 C.3     1  UNL1        0.0420
     20 C         142.7727  143.5450  159.3286 C.3     1  UNL1        0.0585
     21 C         141.5744  144.3686  158.9604 C.3     1  UNL1        0.0175
     22 C         141.0555  145.0164  160.2098 C.3     1  UNL1        0.0199
     23 C         141.9331  144.5931  161.3502 C.3     1  UNL1        0.0856
     24 N         142.9944  143.6837  160.8056 N.3     1  UNL1       -0.2971
     25 H         142.9295  142.7692  161.2527 H       1  UNL1        0.1233
     26 C         141.7769  145.0066  162.7837 C.3     1  UNL1        0.1484
     27 O         140.9903  146.2365  163.1280 O.3     1  UNL1       -0.3786
     28 H         140.9877  146.3598  164.0901 H       1  UNL1        0.2108
     29 C         142.4073  144.1902  163.8727 C.ar    1  UNL1        0.0247
     30 C         143.8381  144.4277  164.2557 C.ar    1  UNL1        0.0012
     31 C         144.4684  143.6113  165.3447 C.ar    1  UNL1        0.0204
     32 C         143.6681  142.5573  166.0509 C.ar    1  UNL1        0.0989
     33 N         142.2373  142.3198  165.6679 N.ar    1  UNL1       -0.2426
     34 C         141.6070  143.1362  164.5789 C.ar    1  UNL1        0.0969
@<TRIPOS>BOND
     1     7     8    2
     2     8     9   am
     3     9     1    1
     4     1     2   ar
     5     2     3   ar
     6     3     4   ar
     7     4    19    1
     8    20    19    1
     9    20    21    1
    10    21    22    1
    11    23    22    1
    12    23    26    1
    13    26    27    1
    14    26    29    1
    15    29    30   ar
    16    30    31   ar
    17    31    32   ar
    18    32    33   ar
    19    33    34   ar
    20    23    24    1
    21     4     5   ar
    22     5     6   ar
    23    11     8    1
    24    11    12    1
    25    12    13    1
    26    13    14    1
    27    14    15   ar
    28    15    16   ar
    29    16    17   ar
    30    17    18   ar
    31     6     1   ar
    32    18    11    1
    33    24    20    1
    34    18    14   ar
    35    34    29   ar
    36     9    10    1
    37    27    28    1
    38    24    25    1
@<TRIPOS>MOLECULE
*****
 34 38 0 0 0
SMALL
GASTEIGER

@<TRIPOS>ATOM
      1 C         143.7277  139.6990  159.1127 C.ar    1  UNL1        0.0503
      2 C         143.9380  139.3001  160.5432 C.ar    1  UNL1        0.0143
      3 C         144.2543  140.3430  161.5739 C.ar    1  UNL1       -0.0029
      4 C         144.3604  141.7847  161.1740 C.ar    1  UNL1       -0.0208
      5 C         144.1502  142.1837  159.7434 C.ar    1  UNL1       -0.0029
      6 C         143.8338  141.1408  158.7127 C.ar    1  UNL1        0.0143
      7 O         140.9110  138.7199  158.7849 O.2     1  UNL1       -0.2727
      8 C         142.0029  138.1666  157.9181 C.2     1  UNL1        0.2485
      9 N         143.4114  138.6561  158.0820 N.am    1  UNL1       -0.2823
     10 H         144.1281  138.2929  157.5131 H       1  UNL1        0.1549
     11 C         141.6866  137.1237  156.8874 C.3     1  UNL1        0.1811
     12 C         140.6648  137.2443  155.7958 C.3     1  UNL1        0.0400
     13 C         140.6832  135.9722  155.0011 C.3     1  UNL1        0.0480
     14 C         141.7163  135.0654  155.6015 C.ar    1  UNL1        0.0577
     15 C         142.3662  133.7189  155.4814 C.ar    1  UNL1        0.0368
     16 C         143.3880  133.5983  156.5729 C.ar    1  UNL1        0.1213
     17 N         143.3696  134.8704  157.3676 N.ar    1  UNL1       -0.1676
     18 N         142.3365  135.7771  156.7673 N.ar    1  UNL1       -0.2480
     19 C         144.6768  142.8276  162.2047 C.3     1  UNL1        0.0420
     20 C         143.5709  143.6299  162.8238 C.3     1  UNL1        0.0585
     21 C         143.6883  145.0254  163.3612 C.3     1  UNL1        0.0175
     22 C         142.3435  145.4355  163.8838 C.3     1  UNL1        0.0199
     23 C         141.3949  144.2935  163.6694 C.3     1  UNL1        0.0856
     24 N         142.1535  143.1776  163.0143 N.3     1  UNL1       -0.2971
     25 H         141.7355  142.9590  162.1099 H       1  UNL1        0.1233
     26 C         139.9426  144.2713  164.0443 C.3     1  UNL1        0.1484
     27 O         139.3354  145.4400  164.7621 O.3     1  UNL1       -0.3786
     28 H         138.3959  145.2649  164.9280 H       1  UNL1        0.2108
     29 C         139.0976  143.0804  163.7013 C.ar    1  UNL1        0.0247
     30 C         139.0525  141.9011  164.6272 C.ar    1  UNL1        0.0012
     31 C         138.2075  140.7102  164.2842 C.ar    1  UNL1        0.0204
     32 C         137.4076  140.6985  163.0153 C.ar    1  UNL1        0.0989
     33 N         137.4528  141.8778  162.0894 N.ar    1  UNL1       -0.2426
     34 C         138.2978  143.0687  162.4324 C.ar    1  UNL1        0.0969
@<TRIPOS>BOND
     1     7     8    2
     2     8     9   am
     3     9     1    1
     4     1     2   ar
     5     2     3   ar
     6     3     4   ar
     7     4    19    1
     8    20    19    1
     9    20    21    1
    10    21    22    1
    11    23    22    1
    12    23    26    1
    13    26    27    1
    14    26    29    1
    15    29    30   ar
    16    30    31   ar
    17    31    32   ar
    18    32    33   ar
    19    33    34   ar
    20    23    24    1
    21     4     5   ar
    22     5     6   ar
    23    11     8    1
    24    11    12    1
    25    12    13    1
    26    13    14    1
    27    14    15   ar
    28    15    16   ar
    29    16    17   ar
    30    17    18   ar
    31     6     1   ar
    32    18    11    1
    33    24    20    1
    34    18    14   ar
    35    34    29   ar
    36     9    10    1
    37    27    28    1
    38    24    25    1
@<TRIPOS>MOLECULE
*****
 34 38 0 0 0
SMALL
GASTEIGER

@<TRIPOS>ATOM
      1 C         138.5433  139.8786  159.5617 C.ar    1  UNL1        0.0503
      2 C         139.8736  139.2190  159.7738 C.ar    1  UNL1        0.0143
      3 C         140.1372  138.4503  161.0345 C.ar    1  UNL1       -0.0029
      4 C         139.0703  138.3411  162.0833 C.ar    1  UNL1       -0.0208
      5 C         137.7399  139.0007  161.8713 C.ar    1  UNL1       -0.0029
      6 C         137.4763  139.7694  160.6105 C.ar    1  UNL1        0.0143
      7 O         138.4302  142.8758  159.6282 O.2     1  UNL1       -0.2727
      8 C         138.2232  142.1460  158.3342 C.2     1  UNL1        0.2485
      9 N         138.2797  140.6474  158.3009 N.am    1  UNL1       -0.2823
     10 H         138.1438  140.1684  157.4516 H       1  UNL1        0.1549
     11 C         137.9596  142.9147  157.0734 C.3     1  UNL1        0.1811
     12 C         136.8883  142.6166  156.0666 C.3     1  UNL1        0.0400
     13 C         136.9878  143.6342  154.9690 C.3     1  UNL1        0.0480
     14 C         138.1204  144.5612  155.2975 C.ar    1  UNL1        0.0577
     15 C         138.8818  145.7630  154.8221 C.ar    1  UNL1        0.0368
     16 C         139.9530  146.0610  155.8289 C.ar    1  UNL1        0.1213
     17 N         139.8536  145.0435  156.9265 N.ar    1  UNL1       -0.1676
     18 N         138.7210  144.1165  156.5980 N.ar    1  UNL1       -0.2480
     19 C         139.3339  137.5724  163.3441 C.3     1  UNL1        0.0420
     20 C         139.4514  138.2957  164.6528 C.3     1  UNL1        0.0585
     21 C         138.3128  138.7046  165.5395 C.3     1  UNL1        0.0175
     22 C         138.8859  139.3987  166.7394 C.3     1  UNL1        0.0199
     23 C         140.3787  139.4188  166.5943 C.3     1  UNL1        0.0856
     24 N         140.7282  138.7371  165.3047 N.3     1  UNL1       -0.2971
     25 H         141.3199  137.9273  165.4905 H       1  UNL1        0.1233
     26 C         141.3513  140.0158  167.5678 C.3     1  UNL1        0.1484
     27 O         142.7999  139.6306  167.5125 O.3     1  UNL1       -0.3786
     28 H         143.2869  140.1035  168.2054 H       1  UNL1        0.2108
     29 C         140.8752  140.9981  168.5967 C.ar    1  UNL1        0.0247
     30 C         140.8336  142.4622  168.2731 C.ar    1  UNL1        0.0012
     31 C         140.3575  143.4445  169.3019 C.ar    1  UNL1        0.0204
     32 C         139.9231  142.9626  170.6544 C.ar    1  UNL1        0.0989
     33 N         139.9647  141.4984  170.9780 N.ar    1  UNL1       -0.2426
     34 C         140.4408  140.5162  169.9491 C.ar    1  UNL1        0.0969
@<TRIPOS>BOND
     1     7     8    2
     2     8     9   am
     3     9     1    1
     4     1     2   ar
     5     2     3   ar
     6     3     4   ar
     7     4    19    1
     8    20    19    1
     9    20    21    1
    10    21    22    1
    11    23    22    1
    12    23    26    1
    13    26    27    1
    14    26    29    1
    15    29    30   ar
    16    30    31   ar
    17    31    32   ar
    18    32    33   ar
    19    33    34   ar
    20    23    24    1
    21     4     5   ar
    22     5     6   ar
    23    11     8    1
    24    11    12    1
    25    12    13    1
    26    13    14    1
    27    14    15   ar
    28    15    16   ar
    29    16    17   ar
    30    17    18   ar
    31     6     1   ar
    32    18    11    1
    33    24    20    1
    34    18    14   ar
    35    34    29   ar
    36     9    10    1
    37    27    28    1
    38    24    25    1
@<TRIPOS>MOLECULE
*****
 34 38 0 0 0
SMALL
GASTEIGER

@<TRIPOS>ATOM
      1 C         138.7878  139.2439  159.8046 C.ar    1  UNL1        0.0503
      2 C         138.0959  139.0143  161.1155 C.ar    1  UNL1        0.0143
      3 C         138.8623  138.4644  162.2818 C.ar    1  UNL1       -0.0029
      4 C         140.3205  138.1441  162.1372 C.ar    1  UNL1       -0.0208
      5 C         141.0124  138.3736  160.8262 C.ar    1  UNL1       -0.0029
      6 C         140.2460  138.9235  159.6599 C.ar    1  UNL1        0.0143
      7 O         138.9915  142.1564  159.1148 O.2     1  UNL1       -0.2727
      8 C         138.1233  141.2501  158.2934 C.2     1  UNL1        0.2485
      9 N         138.0214  139.7938  158.6383 N.am    1  UNL1       -0.2823
     10 H         137.4515  139.1990  158.0992 H       1  UNL1        0.1549
     11 C         137.3569  141.8000  157.1271 C.3     1  UNL1        0.1811
     12 C         137.6388  143.0906  156.4164 C.3     1  UNL1        0.0400
     13 C         136.6301  143.2441  155.3168 C.3     1  UNL1        0.0480
     14 C         135.7249  142.0485  155.3479 C.ar    1  UNL1        0.0577
     15 C         134.5420  141.4044  154.6875 C.ar    1  UNL1        0.0368
     16 C         134.2602  140.1139  155.3982 C.ar    1  UNL1        0.1213
     17 N         135.2688  139.9604  156.4978 N.ar    1  UNL1       -0.1676
     18 N         136.1740  141.1560  156.4667 N.ar    1  UNL1       -0.2480
     19 C         141.0869  137.5941  163.3035 C.3     1  UNL1        0.0420
     20 C         141.6780  138.5263  164.3192 C.3     1  UNL1        0.0585
     21 C         142.5831  138.1383  165.4506 C.3     1  UNL1        0.0175
     22 C         142.9323  139.3823  166.2124 C.3     1  UNL1        0.0199
     23 C         142.2430  140.5392  165.5518 C.3     1  UNL1        0.0856
     24 N         141.4678  140.0101  164.3817 N.3     1  UNL1       -0.2971
     25 H         141.8016  140.4436  163.5209 H       1  UNL1        0.1233
     26 C         142.3160  141.9734  165.9852 C.3     1  UNL1        0.1484
     27 O         143.3235  142.3959  167.0131 O.3     1  UNL1       -0.3786
     28 H         143.2374  143.3479  167.1780 H       1  UNL1        0.2108
     29 C         141.3816  142.9850  165.3908 C.ar    1  UNL1        0.0247
     30 C         139.9849  143.1189  165.9213 C.ar    1  UNL1        0.0012
     31 C         139.0505  144.1305  165.3269 C.ar    1  UNL1        0.0204
     32 C         139.5128  145.0084  164.2019 C.ar    1  UNL1        0.0989
     33 N         140.9095  144.8746  163.6713 N.ar    1  UNL1       -0.2426
     34 C         141.8439  143.8630  164.2658 C.ar    1  UNL1        0.0969
@<TRIPOS>BOND
     1     7     8    2
     2     8     9   am
     3     9     1    1
     4     1     2   ar
     5     2     3   ar
     6     3     4   ar
     7     4    19    1
     8    20    19    1
     9    20    21    1
    10    21    22    1
    11    23    22    1
    12    23    26    1
    13    26    27    1
    14    26    29    1
    15    29    30   ar
    16    30    31   ar
    17    31    32   ar
    18    32    33   ar
    19    33    34   ar
    20    23    24    1
    21     4     5   ar
    22     5     6   ar
    23    11     8    1
    24    11    12    1
    25    12    13    1
    26    13    14    1
    27    14    15   ar
    28    15    16   ar
    29    16    17   ar
    30    17    18   ar
    31     6     1   ar
    32    18    11    1
    33    24    20    1
    34    18    14   ar
    35    34    29   ar
    36     9    10    1
    37    27    28    1
    38    24    25    1
@<TRIPOS>MOLECULE
*****
 34 38 0 0 0
SMALL
GASTEIGER

@<TRIPOS>ATOM
      1 C         138.4763  139.3326  160.4578 C.ar    1  UNL1        0.0503
      2 C         137.7449  139.4959  161.7572 C.ar    1  UNL1        0.0143
      3 C         138.3265  138.9348  163.0209 C.ar    1  UNL1       -0.0029
      4 C         139.6394  138.2104  162.9853 C.ar    1  UNL1       -0.0208
      5 C         140.3709  138.0470  161.6859 C.ar    1  UNL1       -0.0029
      6 C         139.7894  138.6081  160.4222 C.ar    1  UNL1        0.0143
      7 O         139.2516  142.0820  159.5413 O.2     1  UNL1       -0.2727
      8 C         138.2825  141.2684  158.7359 C.2     1  UNL1        0.2485
      9 N         137.8948  139.8936  159.1941 N.am    1  UNL1       -0.2823
     10 H         137.2587  139.3597  158.6654 H       1  UNL1        0.1549
     11 C         137.7009  141.8295  157.4721 C.3     1  UNL1        0.1811
     12 C         138.2189  143.0156  156.7139 C.3     1  UNL1        0.0400
     13 C         137.3374  143.2221  155.5179 C.3     1  UNL1        0.0480
     14 C         136.2747  142.1637  155.5370 C.ar    1  UNL1        0.0577
     15 C         135.0731  141.6372  154.8096 C.ar    1  UNL1        0.0368
     16 C         134.5552  140.4512  155.5679 C.ar    1  UNL1        0.1213
     17 N         135.4366  140.2446  156.7639 N.ar    1  UNL1       -0.1676
     18 N         136.4994  141.3030  156.7448 N.ar    1  UNL1       -0.2480
     19 C         140.2209  137.6493  164.2490 C.3     1  UNL1        0.0420
     20 C         141.2191  138.4474  165.0343 C.3     1  UNL1        0.0585
     21 C         142.6082  138.0119  165.3954 C.3     1  UNL1        0.0175
     22 C         143.2509  139.1165  166.1806 C.3     1  UNL1        0.0199
     23 C         142.2590  140.2348  166.3048 C.3     1  UNL1        0.0856
     24 N         141.0032  139.8213  165.5963 N.3     1  UNL1       -0.2971
     25 H         140.8001  140.4762  164.8412 H       1  UNL1        0.1233
     26 C         142.4835  141.5379  167.0131 C.3     1  UNL1        0.1484
     27 O         143.3850  142.5739  166.4099 O.3     1  UNL1       -0.3786
     28 H         143.4200  143.3499  166.9908 H       1  UNL1        0.2108
     29 C         141.8064  141.8049  168.3247 C.ar    1  UNL1        0.0247
     30 C         140.4292  141.2683  168.5808 C.ar    1  UNL1        0.0012
     31 C         139.7522  141.5354  169.8924 C.ar    1  UNL1        0.0204
     32 C         140.4523  142.3390  170.9479 C.ar    1  UNL1        0.0989
     33 N         141.8295  142.8756  170.6918 N.ar    1  UNL1       -0.2426
     34 C         142.5065  142.6086  169.3802 C.ar    1  UNL1        0.0969
@<TRIPOS>BOND
     1     7     8    2
     2     8     9   am
     3     9     1    1
     4     1     2   ar
     5     2     3   ar
     6     3     4   ar
     7     4    19    1
     8    20    19    1
     9    20    21    1
    10    21    22    1
    11    23    22    1
    12    23    26    1
    13    26    27    1
    14    26    29    1
    15    29    30   ar
    16    30    31   ar
    17    31    32   ar
    18    32    33   ar
    19    33    34   ar
    20    23    24    1
    21     4     5   ar
    22     5     6   ar
    23    11     8    1
    24    11    12    1
    25    12    13    1
    26    13    14    1
    27    14    15   ar
    28    15    16   ar
    29    16    17   ar
    30    17    18   ar
    31     6     1   ar
    32    18    11    1
    33    24    20    1
    34    18    14   ar
    35    34    29   ar
    36     9    10    1
    37    27    28    1
    38    24    25    1
