@<TRIPOS>MOLECULE
*****
 29 31 0 0 0
SMALL
GASTEIGER

@<TRIPOS>ATOM
      1 N         140.1359  142.9764  165.2745 N.pl3   1  UNL1       -0.3040
      2 C         141.0462  142.5897  164.1468 C.3     1  UNL1        0.1123
      3 C         141.0302  143.3729  162.8676 C.3     1  UNL1        0.1149
      4 N         140.1036  144.5429  162.7161 N.am    1  UNL1       -0.2744
      5 C         140.0876  145.3261  161.4370 C.2     1  UNL1        0.2506
      6 O         139.1611  146.4960  161.2855 O.2     1  UNL1       -0.2727
      7 C         139.1933  144.9295  163.8438 C.3     1  UNL1        0.1149
      8 C         139.2094  144.1462  165.1230 C.3     1  UNL1        0.1123
      9 C         140.7102  142.0311  169.0858 C.ar    1  UNL1        0.1504
     10 C         140.6941  142.8143  167.8067 C.ar    1  UNL1        0.0523
     11 C         140.1520  142.1930  166.5536 C.ar    1  UNL1        0.0510
     12 C         139.6260  140.7886  166.5797 C.ar    1  UNL1        0.0156
     13 C         139.6422  140.0053  167.8589 C.ar    1  UNL1        0.0157
     14 C         140.1843  140.6266  169.1119 C.ar    1  UNL1        0.0916
     15 CL        140.2004  139.8433  170.3911 Cl      1  UNL1       -0.0791
     16 C         142.7208  142.9318  170.4629 C.3     1  UNL1        0.2525
     17 O         141.2523  142.6524  170.3389 O.3     1  UNL1       -0.4705
     18 C         140.9979  144.9395  160.3093 C.3     1  UNL1        0.2116
     19 N         140.4943  144.9641  158.8966 N.ar    1  UNL1       -0.2447
     20 N         140.5832  146.1233  157.9489 N.ar    1  UNL1       -0.1642
     21 C         139.9571  145.7095  156.6502 C.ar    1  UNL1        0.1837
     22 C         139.4812  144.2943  156.7952 C.ar    1  UNL1        0.0941
     23 CL        138.7940  143.4825  155.7376 Cl      1  UNL1       -0.0795
     24 C         139.8132  143.8337  158.1836 C.ar    1  UNL1        0.0685
     25 C         139.5162  142.4803  158.7581 C.3     1  UNL1        0.0527
     26 C         139.8294  146.5611  155.4221 C.3     1  UNL1        0.4373
     27 F         139.7016  147.4128  154.1939 F       1  UNL1       -0.1643
     28 F         138.4878  147.0390  155.8930 F       1  UNL1       -0.1643
     29 F         141.1710  146.0832  154.9511 F       1  UNL1       -0.1643
@<TRIPOS>BOND
     1    16    17    1
     2    17     9    1
     3     9    10   ar
     4    10    11   ar
     5    11     1    1
     6     1     2    1
     7     2     3    1
     8     3     4    1
     9     4     5   am
    10     5     6    2
    11     5    18    1
    12    18    19    1
    13    19    20   ar
    14    20    21   ar
    15    21    26    1
    16    26    27    1
    17    26    28    1
    18    26    29    1
    19    21    22   ar
    20    22    23    1
    21    22    24   ar
    22    24    25    1
    23     4     7    1
    24     7     8    1
    25    11    12   ar
    26    12    13   ar
    27    13    14   ar
    28    14    15    1
    29    14     9   ar
    30     8     1    1
    31    24    19   ar
@<TRIPOS>MOLECULE
*****
 29 31 0 0 0
SMALL
GASTEIGER

@<TRIPOS>ATOM
      1 N         140.5986  142.9108  164.9644 N.pl3   1  UNL1       -0.3040
      2 C         141.4781  142.6137  163.7862 C.3     1  UNL1        0.1123
      3 C         141.3663  143.4403  162.5395 C.3     1  UNL1        0.1149
      4 N         140.3749  144.5639  162.4710 N.am    1  UNL1       -0.2744
      5 C         140.2631  145.3904  161.2242 C.2     1  UNL1        0.2506
      6 O         139.2718  146.5140  161.1558 O.2     1  UNL1       -0.2727
      7 C         139.4954  144.8610  163.6492 C.3     1  UNL1        0.1149
      8 C         139.6073  144.0344  164.8959 C.3     1  UNL1        0.1123
      9 C         139.7616  140.2495  167.7869 C.ar    1  UNL1        0.1504
     10 C         139.6497  141.0760  166.5402 C.ar    1  UNL1        0.0523
     11 C         140.7105  142.0842  166.2112 C.ar    1  UNL1        0.0510
     12 C         141.8831  142.2659  167.1288 C.ar    1  UNL1        0.0156
     13 C         141.9949  141.4393  168.3754 C.ar    1  UNL1        0.0157
     14 C         140.9341  140.4311  168.7045 C.ar    1  UNL1        0.0916
     15 CL        141.0460  139.6045  169.9513 Cl      1  UNL1       -0.0791
     16 C         137.7938  138.7276  167.0374 C.3     1  UNL1        0.2525
     17 O         138.7008  139.2412  168.1160 O.3     1  UNL1       -0.4705
     18 C         141.1426  145.0934  160.0460 C.3     1  UNL1        0.2116
     19 N         140.5741  145.1269  158.6584 N.ar    1  UNL1       -0.2447
     20 N         140.7001  146.2577  157.6810 N.ar    1  UNL1       -0.1642
     21 C         139.9837  145.8652  156.4230 C.ar    1  UNL1        0.1837
     22 C         139.4148  144.4917  156.6229 C.ar    1  UNL1        0.0941
     23 CL        138.6205  143.7115  155.6177 Cl      1  UNL1       -0.0795
     24 C         139.7797  144.0354  158.0044 C.ar    1  UNL1        0.0685
     25 C         139.4143  142.7188  158.6233 C.3     1  UNL1        0.0527
     26 C         139.8581  146.6997  155.1829 C.3     1  UNL1        0.4373
     27 F         139.7326  147.5341  153.9427 F       1  UNL1       -0.1643
     28 F         138.4870  147.1311  155.6120 F       1  UNL1       -0.1643
     29 F         141.2292  146.2683  154.7538 F       1  UNL1       -0.1643
@<TRIPOS>BOND
     1    16    17    1
     2    17     9    1
     3     9    10   ar
     4    10    11   ar
     5    11     1    1
     6     1     2    1
     7     2     3    1
     8     3     4    1
     9     4     5   am
    10     5     6    2
    11     5    18    1
    12    18    19    1
    13    19    20   ar
    14    20    21   ar
    15    21    26    1
    16    26    27    1
    17    26    28    1
    18    26    29    1
    19    21    22   ar
    20    22    23    1
    21    22    24   ar
    22    24    25    1
    23     4     7    1
    24     7     8    1
    25    11    12   ar
    26    12    13   ar
    27    13    14   ar
    28    14    15    1
    29    14     9   ar
    30     8     1    1
    31    24    19   ar
@<TRIPOS>MOLECULE
*****
 29 31 0 0 0
SMALL
GASTEIGER

@<TRIPOS>ATOM
      1 N         141.2447  144.7096  159.8396 N.pl3   1  UNL1       -0.3040
      2 C         142.0761  143.7694  160.6610 C.3     1  UNL1        0.1123
      3 C         141.8036  143.6134  162.1278 C.3     1  UNL1        0.1149
      4 N         140.6997  144.3976  162.7731 N.am    1  UNL1       -0.2744
      5 C         140.4271  144.2416  164.2398 C.2     1  UNL1        0.2506
      6 O         139.3232  145.0257  164.8851 O.2     1  UNL1       -0.2727
      7 C         139.8682  145.3377  161.9516 C.3     1  UNL1        0.1149
      8 C         140.1408  145.4937  160.4848 C.3     1  UNL1        0.1123
      9 C         141.0814  146.0851  156.1205 C.ar    1  UNL1        0.1504
     10 C         140.8089  145.9291  157.5872 C.ar    1  UNL1        0.0523
     11 C         141.5173  144.8655  158.3727 C.ar    1  UNL1        0.0510
     12 C         142.4982  143.9580  157.6915 C.ar    1  UNL1        0.0156
     13 C         142.7707  144.1140  156.2248 C.ar    1  UNL1        0.0157
     14 C         142.0623  145.1776  155.4393 C.ar    1  UNL1        0.0916
     15 CL        142.3349  145.3335  153.9725 Cl      1  UNL1       -0.0791
     16 C         138.8881  147.3149  155.4670 C.3     1  UNL1        0.2525
     17 O         140.3730  147.1487  155.3350 O.3     1  UNL1       -0.4705
     18 C         141.2586  143.3014  165.0613 C.3     1  UNL1        0.2116
     19 N         140.6244  142.1006  165.6984 N.ar    1  UNL1       -0.2447
     20 N         140.1523  140.8694  164.9836 N.ar    1  UNL1       -0.1642
     21 C         139.5871  139.9281  166.0056 C.ar    1  UNL1        0.1837
     22 C         139.7099  140.5776  167.3521 C.ar    1  UNL1        0.0941
     23 CL        139.2691  139.9879  168.6590 Cl      1  UNL1       -0.0795
     24 C         140.3510  141.9203  167.1622 C.ar    1  UNL1        0.0685
     25 C         140.6638  142.9091  168.2460 C.3     1  UNL1        0.0527
     26 C         139.0018  138.5748  165.7295 C.3     1  UNL1        0.4373
     27 F         138.4165  137.2215  165.4535 F       1  UNL1       -0.1643
     28 F         140.3617  138.0624  165.3579 F       1  UNL1       -0.1643
     29 F         137.6419  139.0872  166.1011 F       1  UNL1       -0.1643
@<TRIPOS>BOND
     1    16    17    1
     2    17     9    1
     3     9    10   ar
     4    10    11   ar
     5    11     1    1
     6     1     2    1
     7     2     3    1
     8     3     4    1
     9     4     5   am
    10     5     6    2
    11     5    18    1
    12    18    19    1
    13    19    20   ar
    14    20    21   ar
    15    21    26    1
    16    26    27    1
    17    26    28    1
    18    26    29    1
    19    21    22   ar
    20    22    23    1
    21    22    24   ar
    22    24    25    1
    23     4     7    1
    24     7     8    1
    25    11    12   ar
    26    12    13   ar
    27    13    14   ar
    28    14    15    1
    29    14     9   ar
    30     8     1    1
    31    24    19   ar
@<TRIPOS>MOLECULE
*****
 29 31 0 0 0
SMALL
GASTEIGER

@<TRIPOS>ATOM
      1 N         140.9779  138.8752  158.8773 N.pl3   1  UNL1       -0.3040
      2 C         139.7152  138.8880  159.6868 C.3     1  UNL1        0.1123
      3 C         139.5547  139.8685  160.8106 C.3     1  UNL1        0.1149
      4 N         140.6570  140.8362  161.1248 N.am    1  UNL1       -0.2744
      5 C         140.4965  141.8167  162.2485 C.2     1  UNL1        0.2506
      6 O         141.5987  142.7844  162.5627 O.2     1  UNL1       -0.2727
      7 C         141.9197  140.8234  160.3152 C.3     1  UNL1        0.1149
      8 C         142.0802  139.8428  159.1914 C.3     1  UNL1        0.1123
      9 C         142.5538  136.0999  156.5183 C.ar    1  UNL1        0.1504
     10 C         142.3933  137.0804  157.6420 C.ar    1  UNL1        0.0523
     11 C         141.1384  137.8946  157.7535 C.ar    1  UNL1        0.0510
     12 C         140.0440  137.7282  156.7413 C.ar    1  UNL1        0.0156
     13 C         140.2045  136.7477  155.6176 C.ar    1  UNL1        0.0157
     14 C         141.4594  135.9335  155.5061 C.ar    1  UNL1        0.0916
     15 CL        141.6198  134.9530  154.3823 Cl      1  UNL1       -0.0791
     16 C         143.9048  133.9577  157.0975 C.3     1  UNL1        0.2525
     17 O         143.8086  135.2857  156.4068 O.3     1  UNL1       -0.4705
     18 C         139.2338  141.8296  163.0581 C.3     1  UNL1        0.2116
     19 N         139.1248  140.9824  164.2911 N.ar    1  UNL1       -0.2447
     20 N         138.4349  139.6542  164.3900 N.ar    1  UNL1       -0.1642
     21 C         138.5702  139.1656  165.8018 C.ar    1  UNL1        0.1837
     22 C         139.3437  140.1919  166.5754 C.ar    1  UNL1        0.0941
     23 CL        139.7101  140.1098  168.0276 Cl      1  UNL1       -0.0795
     24 C         139.6864  141.3148  165.6417 C.ar    1  UNL1        0.0685
     25 C         140.4558  142.5526  165.9964 C.3     1  UNL1        0.0527
     26 C         138.0273  137.8770  166.3446 C.3     1  UNL1        0.4373
     27 F         137.4844  136.5883  166.8875 F       1  UNL1       -0.1643
     28 F         138.9250  137.1093  165.4200 F       1  UNL1       -0.1643
     29 F         137.1296  138.6446  167.2692 F       1  UNL1       -0.1643
@<TRIPOS>BOND
     1    16    17    1
     2    17     9    1
     3     9    10   ar
     4    10    11   ar
     5    11     1    1
     6     1     2    1
     7     2     3    1
     8     3     4    1
     9     4     5   am
    10     5     6    2
    11     5    18    1
    12    18    19    1
    13    19    20   ar
    14    20    21   ar
    15    21    26    1
    16    26    27    1
    17    26    28    1
    18    26    29    1
    19    21    22   ar
    20    22    23    1
    21    22    24   ar
    22    24    25    1
    23     4     7    1
    24     7     8    1
    25    11    12   ar
    26    12    13   ar
    27    13    14   ar
    28    14    15    1
    29    14     9   ar
    30     8     1    1
    31    24    19   ar
@<TRIPOS>MOLECULE
*****
 29 31 0 0 0
SMALL
GASTEIGER

@<TRIPOS>ATOM
      1 N         141.0325  144.6065  160.3875 N.pl3   1  UNL1       -0.3040
      2 C         141.9037  143.6779  161.1805 C.3     1  UNL1        0.1123
      3 C         141.6445  143.4728  162.6436 C.3     1  UNL1        0.1149
      4 N         140.5141  144.1962  163.3137 N.am    1  UNL1       -0.2744
      5 C         140.2549  143.9911  164.7768 C.2     1  UNL1        0.2506
      6 O         139.1246  144.7145  165.4469 O.2     1  UNL1       -0.2727
      7 C         139.6430  145.1248  162.5207 C.3     1  UNL1        0.1149
      8 C         139.9022  145.3299  161.0575 C.3     1  UNL1        0.1123
      9 C         140.7382  146.0125  156.6879 C.ar    1  UNL1        0.1504
     10 C         140.4790  145.8073  158.1510 C.ar    1  UNL1        0.0523
     11 C         141.2918  144.8116  158.9243 C.ar    1  UNL1        0.0510
     12 C         142.3638  144.0211  158.2345 C.ar    1  UNL1        0.0156
     13 C         142.6230  144.2263  156.7714 C.ar    1  UNL1        0.0157
     14 C         141.8102  145.2220  155.9981 C.ar    1  UNL1        0.0916
     15 CL        142.0694  145.4271  154.5350 Cl      1  UNL1       -0.0791
     16 C         138.6286  146.5915  155.2864 C.3     1  UNL1        0.2525
     17 O         139.9254  147.0081  155.9146 O.3     1  UNL1       -0.4705
     18 C         141.1260  143.0625  165.5699 C.3     1  UNL1        0.2116
     19 N         140.5043  142.0094  166.4383 N.ar    1  UNL1       -0.2447
     20 N         140.7322  141.8330  167.9104 N.ar    1  UNL1       -0.1642
     21 C         139.9142  140.6623  168.3691 C.ar    1  UNL1        0.1837
     22 C         139.1807  140.1151  167.1805 C.ar    1  UNL1        0.0941
     23 CL        138.2466  138.9415  167.1845 Cl      1  UNL1       -0.0795
     24 C         139.5454  140.9477  165.9872 C.ar    1  UNL1        0.0685
     25 C         139.0400  140.7527  164.5885 C.3     1  UNL1        0.0527
     26 C         139.8423  140.1319  169.7703 C.3     1  UNL1        0.4373
     27 F         139.7704  139.6015  171.1716 F       1  UNL1       -0.1643
     28 F         141.1550  139.4332  169.5732 F       1  UNL1       -0.1643
     29 F         138.5296  140.8305  169.9674 F       1  UNL1       -0.1643
@<TRIPOS>BOND
     1    16    17    1
     2    17     9    1
     3     9    10   ar
     4    10    11   ar
     5    11     1    1
     6     1     2    1
     7     2     3    1
     8     3     4    1
     9     4     5   am
    10     5     6    2
    11     5    18    1
    12    18    19    1
    13    19    20   ar
    14    20    21   ar
    15    21    26    1
    16    26    27    1
    17    26    28    1
    18    26    29    1
    19    21    22   ar
    20    22    23    1
    21    22    24   ar
    22    24    25    1
    23     4     7    1
    24     7     8    1
    25    11    12   ar
    26    12    13   ar
    27    13    14   ar
    28    14    15    1
    29    14     9   ar
    30     8     1    1
    31    24    19   ar
@<TRIPOS>MOLECULE
*****
 29 31 0 0 0
SMALL
GASTEIGER

@<TRIPOS>ATOM
      1 N         142.4897  138.5336  160.0261 N.pl3   1  UNL1       -0.3040
      2 C         142.0520  137.9859  161.3521 C.3     1  UNL1        0.1123
      3 C         142.7193  138.4504  162.6126 C.3     1  UNL1        0.1149
      4 N         143.8245  139.4626  162.5471 N.am    1  UNL1       -0.2744
      5 C         144.4918  139.9271  163.8076 C.2     1  UNL1        0.2506
      6 O         145.5969  140.9392  163.7420 O.2     1  UNL1       -0.2727
      7 C         144.2622  140.0102  161.2210 C.3     1  UNL1        0.1149
      8 C         143.5948  139.5457  159.9605 C.3     1  UNL1        0.1123
      9 C         141.9015  136.7339  156.5382 C.ar    1  UNL1        0.1504
     10 C         142.5688  137.1984  157.7987 C.ar    1  UNL1        0.0523
     11 C         141.8223  138.0690  158.7655 C.ar    1  UNL1        0.0510
     12 C         140.4085  138.4750  158.4720 C.ar    1  UNL1        0.0156
     13 C         139.7412  138.0105  157.2115 C.ar    1  UNL1        0.0157
     14 C         140.4877  137.1399  156.2446 C.ar    1  UNL1        0.0916
     15 CL        139.8203  136.6754  154.9841 Cl      1  UNL1       -0.0791
     16 C         144.1370  135.9907  155.4426 C.3     1  UNL1        0.2525
     17 O         142.6480  135.8633  155.5713 O.3     1  UNL1       -0.4705
     18 C         144.0541  139.3794  165.1336 C.3     1  UNL1        0.2116
     19 N         142.7855  139.8703  165.7660 N.ar    1  UNL1       -0.2447
     20 N         141.5572  139.0507  166.0293 N.ar    1  UNL1       -0.1642
     21 C         140.5351  139.9407  166.6721 C.ar    1  UNL1        0.1837
     22 C         141.1318  141.3105  166.8060 C.ar    1  UNL1        0.0941
     23 CL        140.4563  142.5126  167.3963 Cl      1  UNL1       -0.0795
     24 C         142.5226  141.2669  166.2460 C.ar    1  UNL1        0.0685
     25 C         143.4821  142.4178  166.1780 C.3     1  UNL1        0.0527
     26 C         139.1581  139.5327  167.1049 C.3     1  UNL1        0.4373
     27 F         137.7810  139.1247  167.5378 F       1  UNL1       -0.1643
     28 F         138.7350  139.4372  165.6690 F       1  UNL1       -0.1643
     29 F         139.5812  139.6283  168.5409 F       1  UNL1       -0.1643
@<TRIPOS>BOND
     1    16    17    1
     2    17     9    1
     3     9    10   ar
     4    10    11   ar
     5    11     1    1
     6     1     2    1
     7     2     3    1
     8     3     4    1
     9     4     5   am
    10     5     6    2
    11     5    18    1
    12    18    19    1
    13    19    20   ar
    14    20    21   ar
    15    21    26    1
    16    26    27    1
    17    26    28    1
    18    26    29    1
    19    21    22   ar
    20    22    23    1
    21    22    24   ar
    22    24    25    1
    23     4     7    1
    24     7     8    1
    25    11    12   ar
    26    12    13   ar
    27    13    14   ar
    28    14    15    1
    29    14     9   ar
    30     8     1    1
    31    24    19   ar
@<TRIPOS>MOLECULE
*****
 29 31 0 0 0
SMALL
GASTEIGER

@<TRIPOS>ATOM
      1 N         140.5809  142.9136  164.9878 N.pl3   1  UNL1       -0.3040
      2 C         141.4004  142.6143  163.7677 C.3     1  UNL1        0.1123
      3 C         141.2611  143.4684  162.5425 C.3     1  UNL1        0.1149
      4 N         140.3023  144.6220  162.5375 N.am    1  UNL1       -0.2744
      5 C         140.1630  145.4761  161.3124 C.2     1  UNL1        0.2506
      6 O         139.2041  146.6296  161.3074 O.2     1  UNL1       -0.2727
      7 C         139.4828  144.9213  163.7577 C.3     1  UNL1        0.1149
      8 C         139.6221  144.0671  164.9829 C.3     1  UNL1        0.1123
      9 C         139.7696  140.2442  167.8103 C.ar    1  UNL1        0.1504
     10 C         139.6303  141.0984  166.5852 C.ar    1  UNL1        0.0523
     11 C         140.7203  142.0594  166.2130 C.ar    1  UNL1        0.0510
     12 C         141.9495  142.1662  167.0659 C.ar    1  UNL1        0.0156
     13 C         142.0888  141.3120  168.2910 C.ar    1  UNL1        0.0157
     14 C         140.9989  140.3510  168.6632 C.ar    1  UNL1        0.0916
     15 CL        141.1382  139.4968  169.8884 Cl      1  UNL1       -0.0791
     16 C         137.8107  138.6852  167.1162 C.3     1  UNL1        0.2525
     17 O         138.6797  139.2833  168.1825 O.3     1  UNL1       -0.4705
     18 C         140.9824  145.1768  160.0922 C.3     1  UNL1        0.2116
     19 N         140.3599  144.4682  158.9259 N.ar    1  UNL1       -0.2447
     20 N         139.4286  143.2948  159.0021 N.ar    1  UNL1       -0.1642
     21 C         139.0524  142.9099  157.6020 C.ar    1  UNL1        0.1837
     22 C         139.7513  143.8455  156.6604 C.ar    1  UNL1        0.0941
     23 CL        139.6584  143.8221  155.1635 Cl      1  UNL1       -0.0795
     24 C         140.5593  144.8085  157.4787 C.ar    1  UNL1        0.0685
     25 C         141.4163  145.9172  156.9437 C.3     1  UNL1        0.0527
     26 C         138.1380  141.7867  157.2118 C.3     1  UNL1        0.4373
     27 F         137.2235  140.6635  156.8216 F       1  UNL1       -0.1643
     28 F         136.9822  142.7419  157.1708 F       1  UNL1       -0.1643
     29 F         139.2938  140.8315  157.2528 F       1  UNL1       -0.1643
@<TRIPOS>BOND
     1    16    17    1
     2    17     9    1
     3     9    10   ar
     4    10    11   ar
     5    11     1    1
     6     1     2    1
     7     2     3    1
     8     3     4    1
     9     4     5   am
    10     5     6    2
    11     5    18    1
    12    18    19    1
    13    19    20   ar
    14    20    21   ar
    15    21    26    1
    16    26    27    1
    17    26    28    1
    18    26    29    1
    19    21    22   ar
    20    22    23    1
    21    22    24   ar
    22    24    25    1
    23     4     7    1
    24     7     8    1
    25    11    12   ar
    26    12    13   ar
    27    13    14   ar
    28    14    15    1
    29    14     9   ar
    30     8     1    1
    31    24    19   ar
@<TRIPOS>MOLECULE
*****
 29 31 0 0 0
SMALL
GASTEIGER

@<TRIPOS>ATOM
      1 N         140.8206  139.0249  161.4455 N.pl3   1  UNL1       -0.3040
      2 C         140.2739  138.3103  160.2453 C.3     1  UNL1        0.1123
      3 C         141.0304  138.3323  158.9503 C.3     1  UNL1        0.1149
      4 N         142.3336  139.0690  158.8554 N.am    1  UNL1       -0.2744
      5 C         143.0902  139.0910  157.5603 C.2     1  UNL1        0.2506
      6 O         144.3933  139.8276  157.4655 O.2     1  UNL1       -0.2727
      7 C         142.8803  139.7836  160.0556 C.3     1  UNL1        0.1149
      8 C         142.1237  139.7615  161.3507 C.3     1  UNL1        0.1123
      9 C         138.6598  140.2333  164.5473 C.ar    1  UNL1        0.1504
     10 C         139.4164  140.2553  163.2523 C.ar    1  UNL1        0.0523
     11 C         140.0640  139.0028  162.7406 C.ar    1  UNL1        0.0510
     12 C         139.9550  137.7283  163.5239 C.ar    1  UNL1        0.0156
     13 C         139.1985  137.7063  164.8189 C.ar    1  UNL1        0.0157
     14 C         138.5509  138.9588  165.3306 C.ar    1  UNL1        0.0916
     15 CL        137.7943  138.9367  166.6257 Cl      1  UNL1       -0.0791
     16 C         138.6006  142.8246  164.7251 C.3     1  UNL1        0.2525
     17 O         138.0123  141.4858  165.0590 O.3     1  UNL1       -0.4705
     18 C         142.5435  138.3764  156.3601 C.3     1  UNL1        0.2116
     19 N         142.5938  136.8788  156.2915 N.ar    1  UNL1       -0.2447
     20 N         143.6983  136.0089  156.8143 N.ar    1  UNL1       -0.1642
     21 C         143.3356  134.5807  156.5340 C.ar    1  UNL1        0.1837
     22 C         142.0069  134.5679  155.8379 C.ar    1  UNL1        0.0941
     23 CL        141.2666  133.3488  155.3734 Cl      1  UNL1       -0.0795
     24 C         141.5484  135.9882  155.6881 C.ar    1  UNL1        0.0685
     25 C         140.2692  136.4389  155.0474 C.3     1  UNL1        0.0527
     26 C         144.1573  133.3766  156.8876 C.3     1  UNL1        0.4373
     27 F         144.9790  132.1725  157.2412 F       1  UNL1       -0.1643
     28 F         144.2492  133.0128  155.4353 F       1  UNL1       -0.1643
     29 F         144.0654  133.7404  158.3399 F       1  UNL1       -0.1643
@<TRIPOS>BOND
     1    16    17    1
     2    17     9    1
     3     9    10   ar
     4    10    11   ar
     5    11     1    1
     6     1     2    1
     7     2     3    1
     8     3     4    1
     9     4     5   am
    10     5     6    2
    11     5    18    1
    12    18    19    1
    13    19    20   ar
    14    20    21   ar
    15    21    26    1
    16    26    27    1
    17    26    28    1
    18    26    29    1
    19    21    22   ar
    20    22    23    1
    21    22    24   ar
    22    24    25    1
    23     4     7    1
    24     7     8    1
    25    11    12   ar
    26    12    13   ar
    27    13    14   ar
    28    14    15    1
    29    14     9   ar
    30     8     1    1
    31    24    19   ar
@<TRIPOS>MOLECULE
*****
 29 31 0 0 0
SMALL
GASTEIGER

@<TRIPOS>ATOM
      1 N         141.7936  142.2989  159.3533 N.pl3   1  UNL1       -0.3040
      2 C         140.8195  141.3460  159.9803 C.3     1  UNL1        0.1123
      3 C         139.7642  141.8589  160.9147 C.3     1  UNL1        0.1149
      4 N         139.6829  143.3249  161.2221 N.am    1  UNL1       -0.2744
      5 C         138.6276  143.8378  162.1566 C.2     1  UNL1        0.2506
      6 O         138.5463  145.3037  162.4639 O.2     1  UNL1       -0.2727
      7 C         140.6569  144.2778  160.5951 C.3     1  UNL1        0.1149
      8 C         141.7123  143.7648  159.6606 C.3     1  UNL1        0.1123
      9 C         143.8021  139.8837  156.9278 C.ar    1  UNL1        0.1504
     10 C         142.7468  140.3967  157.8622 C.ar    1  UNL1        0.0523
     11 C         142.8489  141.7859  158.4188 C.ar    1  UNL1        0.0510
     12 C         144.0063  142.6621  158.0409 C.ar    1  UNL1        0.0156
     13 C         145.0615  142.1491  157.1065 C.ar    1  UNL1        0.0157
     14 C         144.9594  140.7599  156.5500 C.ar    1  UNL1        0.0916
     15 CL        146.0148  140.2469  155.6155 Cl      1  UNL1       -0.0791
     16 C         142.8997  137.4532  157.0959 C.3     1  UNL1        0.2525
     17 O         143.7000  138.4945  156.3713 O.3     1  UNL1       -0.4705
     18 C         137.6536  142.8848  162.7836 C.3     1  UNL1        0.2116
     19 N         138.1213  141.9109  163.8241 N.ar    1  UNL1       -0.2447
     20 N         137.8561  140.4346  163.8323 N.ar    1  UNL1       -0.1642
     21 C         138.5072  139.8535  165.0523 C.ar    1  UNL1        0.1837
     22 C         139.1748  140.9707  165.7981 C.ar    1  UNL1        0.0941
     23 CL        139.9455  140.8395  167.0782 Cl      1  UNL1       -0.0795
     24 C         138.9362  142.2423  165.0390 C.ar    1  UNL1        0.0685
     25 C         139.4266  143.6058  165.4268 C.3     1  UNL1        0.0527
     26 C         138.4932  138.4088  165.4557 C.3     1  UNL1        0.4373
     27 F         138.4792  136.9641  165.8591 F       1  UNL1       -0.1643
     28 F         137.4982  138.7196  166.5343 F       1  UNL1       -0.1643
     29 F         139.4882  138.0980  164.3771 F       1  UNL1       -0.1643
@<TRIPOS>BOND
     1    16    17    1
     2    17     9    1
     3     9    10   ar
     4    10    11   ar
     5    11     1    1
     6     1     2    1
     7     2     3    1
     8     3     4    1
     9     4     5   am
    10     5     6    2
    11     5    18    1
    12    18    19    1
    13    19    20   ar
    14    20    21   ar
    15    21    26    1
    16    26    27    1
    17    26    28    1
    18    26    29    1
    19    21    22   ar
    20    22    23    1
    21    22    24   ar
    22    24    25    1
    23     4     7    1
    24     7     8    1
    25    11    12   ar
    26    12    13   ar
    27    13    14   ar
    28    14    15    1
    29    14     9   ar
    30     8     1    1
    31    24    19   ar
