@<TRIPOS>MOLECULE
*****
 24 26 0 0 0
SMALL
GASTEIGER

@<TRIPOS>ATOM
      1 C         137.4769  142.7456  163.1085 C.3     1  UNL1        0.0691
      2 C         138.1265  143.4833  164.2416 C.3     1  UNL1        0.0202
      3 C         138.1425  144.6355  165.2019 C.3     1  UNL1        0.0062
      4 C         139.2353  143.6088  165.2439 C.3     1  UNL1        0.0268
      5 C         140.5065  143.0886  165.8468 C.ar    1  UNL1        0.0137
      6 C         140.4912  142.4750  167.2155 C.ar    1  UNL1        0.0284
      7 C         141.7623  141.9547  167.8184 C.ar    1  UNL1        0.1400
      8 F         141.7470  141.3411  169.1870 F       1  UNL1       -0.2042
      9 C         143.0488  142.0481  167.0527 C.ar    1  UNL1        0.0327
     10 C         143.0641  142.6617  165.6841 C.ar    1  UNL1        0.0389
     11 C         141.7929  143.1820  165.0811 C.ar    1  UNL1        0.1348
     12 O         141.8082  143.7956  163.7124 O.3     1  UNL1       -0.4717
     13 C         142.0441  145.2684  163.5534 C.3     1  UNL1        0.2525
     14 N         136.9660  141.3508  163.3167 N.3     1  UNL1       -0.2937
     15 H         136.7807  141.2510  164.3147 H       1  UNL1        0.1236
     16 C         137.8066  140.1760  162.9127 C.3     1  UNL1        0.0987
     17 C         139.0306  139.3757  165.0601 C.ar    1  UNL1        0.1360
     18 C         140.3038  139.0766  165.7946 C.ar    1  UNL1        0.0366
     19 C         141.6263  139.2787  165.1161 C.ar    1  UNL1        0.0031
     20 C         141.6755  139.7799  163.7032 C.ar    1  UNL1       -0.0001
     21 C         140.4023  140.0790  162.9688 C.ar    1  UNL1        0.0001
     22 C         139.0798  139.8769  163.6472 C.ar    1  UNL1        0.0276
     23 C         137.6546  138.5838  167.1167 C.3     1  UNL1        0.2525
     24 O         137.7082  139.1736  165.7386 O.3     1  UNL1       -0.4717
@<TRIPOS>BOND
     1    23    24    1
     2    24    17    1
     3    17    18   ar
     4    18    19   ar
     5    19    20   ar
     6    20    21   ar
     7    21    22   ar
     8    22    16    1
     9    16    14    1
    10    14     1    1
    11     2     1    1
    12     2     3    1
    13     3     4    1
    14     4     5    1
    15     5     6   ar
    16     6     7   ar
    17     7     8    1
    18     7     9   ar
    19     9    10   ar
    20    10    11   ar
    21    11    12    1
    22    12    13    1
    23    22    17   ar
    24     4     2    1
    25    11     5   ar
    26    14    15    1
@<TRIPOS>MOLECULE
*****
 24 26 0 0 0
SMALL
GASTEIGER

@<TRIPOS>ATOM
      1 C         137.5833  142.8384  162.9531 C.3     1  UNL1        0.0691
      2 C         138.1489  143.5355  164.1548 C.3     1  UNL1        0.0202
      3 C         138.0727  144.6308  165.1767 C.3     1  UNL1        0.0062
      4 C         139.2048  143.6475  165.2142 C.3     1  UNL1        0.0268
      5 C         140.4680  143.1445  165.8476 C.ar    1  UNL1        0.0137
      6 C         140.4911  142.8057  167.3087 C.ar    1  UNL1        0.0284
      7 C         141.7544  142.3027  167.9421 C.ar    1  UNL1        0.1400
      8 F         141.7774  141.9640  169.4031 F       1  UNL1       -0.2042
      9 C         142.9945  142.1384  167.1144 C.ar    1  UNL1        0.0327
     10 C         142.9714  142.4771  165.6534 C.ar    1  UNL1        0.0389
     11 C         141.7082  142.9801  165.0199 C.ar    1  UNL1        0.1348
     12 O         141.6851  143.3188  163.5589 O.3     1  UNL1       -0.4717
     13 C         142.9471  143.7412  162.8669 C.3     1  UNL1        0.2525
     14 N         136.9272  141.4979  163.1033 N.3     1  UNL1       -0.2937
     15 H         136.4605  141.4985  164.0103 H       1  UNL1        0.1236
     16 C         137.7534  140.2474  163.0423 C.3     1  UNL1        0.0987
     17 C         140.1546  139.6938  163.8657 C.ar    1  UNL1        0.1360
     18 C         141.1019  139.3657  164.9815 C.ar    1  UNL1        0.0366
     19 C         140.5953  139.2631  166.3897 C.ar    1  UNL1        0.0031
     20 C         139.1415  139.4886  166.6821 C.ar    1  UNL1       -0.0001
     21 C         138.1942  139.8167  165.5663 C.ar    1  UNL1        0.0001
     22 C         138.7008  139.9193  164.1581 C.ar    1  UNL1        0.0276
     23 C         142.1125  140.0749  162.2011 C.3     1  UNL1        0.2525
     24 O         140.6611  139.7964  162.4576 O.3     1  UNL1       -0.4717
@<TRIPOS>BOND
     1    23    24    1
     2    24    17    1
     3    17    18   ar
     4    18    19   ar
     5    19    20   ar
     6    20    21   ar
     7    21    22   ar
     8    22    16    1
     9    16    14    1
    10    14     1    1
    11     2     1    1
    12     2     3    1
    13     3     4    1
    14     4     5    1
    15     5     6   ar
    16     6     7   ar
    17     7     8    1
    18     7     9   ar
    19     9    10   ar
    20    10    11   ar
    21    11    12    1
    22    12    13    1
    23    22    17   ar
    24     4     2    1
    25    11     5   ar
    26    14    15    1
@<TRIPOS>MOLECULE
*****
 24 26 0 0 0
SMALL
GASTEIGER

@<TRIPOS>ATOM
      1 C         137.4673  142.8934  163.0880 C.3     1  UNL1        0.0691
      2 C         138.2893  143.5892  164.1320 C.3     1  UNL1        0.0202
      3 C         138.4216  144.6409  165.1933 C.3     1  UNL1        0.0062
      4 C         139.5810  143.7425  164.8791 C.3     1  UNL1        0.0268
      5 C         140.9961  143.3125  165.1290 C.ar    1  UNL1        0.0137
      6 C         142.0445  143.5367  164.0799 C.ar    1  UNL1        0.0284
      7 C         143.4596  143.1066  164.3298 C.ar    1  UNL1        0.1400
      8 F         144.5080  143.3308  163.2808 F       1  UNL1       -0.2042
      9 C         143.8263  142.4523  165.6288 C.ar    1  UNL1        0.0327
     10 C         142.7779  142.2281  166.6779 C.ar    1  UNL1        0.0389
     11 C         141.3628  142.6582  166.4280 C.ar    1  UNL1        0.1348
     12 O         140.3144  142.4340  167.4771 O.3     1  UNL1       -0.4717
     13 C         140.4767  143.0376  168.8406 C.3     1  UNL1        0.2525
     14 N         137.0018  141.4856  163.3151 N.3     1  UNL1       -0.2937
     15 H         136.9005  141.3680  164.3232 H       1  UNL1        0.1236
     16 C         137.8291  140.3340  162.8258 C.3     1  UNL1        0.0987
     17 C         139.1389  139.5578  164.9310 C.ar    1  UNL1        0.1360
     18 C         140.4381  139.2282  165.6042 C.ar    1  UNL1        0.0366
     19 C         141.7268  139.3451  164.8455 C.ar    1  UNL1        0.0031
     20 C         141.7163  139.7916  163.4136 C.ar    1  UNL1       -0.0001
     21 C         140.4170  140.1212  162.7404 C.ar    1  UNL1        0.0001
     22 C         139.1283  140.0043  163.4991 C.ar    1  UNL1        0.0276
     23 C         137.7655  138.5465  166.8909 C.3     1  UNL1        0.2525
     24 O         137.8502  139.4409  165.6897 O.3     1  UNL1       -0.4717
@<TRIPOS>BOND
     1    23    24    1
     2    24    17    1
     3    17    18   ar
     4    18    19   ar
     5    19    20   ar
     6    20    21   ar
     7    21    22   ar
     8    22    16    1
     9    16    14    1
    10    14     1    1
    11     2     1    1
    12     2     3    1
    13     3     4    1
    14     4     5    1
    15     5     6   ar
    16     6     7   ar
    17     7     8    1
    18     7     9   ar
    19     9    10   ar
    20    10    11   ar
    21    11    12    1
    22    12    13    1
    23    22    17   ar
    24     4     2    1
    25    11     5   ar
    26    14    15    1
@<TRIPOS>MOLECULE
*****
 24 26 0 0 0
SMALL
GASTEIGER

@<TRIPOS>ATOM
      1 C         138.0276  142.4527  163.6754 C.3     1  UNL1        0.0691
      2 C         139.0204  142.7505  164.7597 C.3     1  UNL1        0.0202
      3 C         139.6138  143.7075  165.7506 C.3     1  UNL1        0.0062
      4 C         140.1465  142.3091  165.6468 C.3     1  UNL1        0.0268
      5 C         141.1043  141.2470  166.0990 C.ar    1  UNL1        0.0137
      6 C         142.2358  140.8285  165.2075 C.ar    1  UNL1        0.0284
      7 C         143.1936  139.7664  165.6598 C.ar    1  UNL1        0.1400
      8 F         144.3250  139.3480  164.7683 F       1  UNL1       -0.2042
      9 C         143.0199  139.1227  167.0034 C.ar    1  UNL1        0.0327
     10 C         141.8884  139.5411  167.8949 C.ar    1  UNL1        0.0389
     11 C         140.9306  140.6033  167.4427 C.ar    1  UNL1        0.1348
     12 O         139.7991  141.0217  168.3341 O.3     1  UNL1       -0.4717
     13 C         139.6377  140.3929  169.6863 C.3     1  UNL1        0.2525
     14 N         137.3184  141.1312  163.6501 N.3     1  UNL1       -0.2937
     15 H         137.3585  140.7573  164.5982 H       1  UNL1        0.1236
     16 C         137.7940  140.0423  162.7346 C.3     1  UNL1        0.0987
     17 C         138.9806  138.7188  164.6296 C.ar    1  UNL1        0.1360
     18 C         140.0610  137.7802  165.0785 C.ar    1  UNL1        0.0366
     19 C         141.0352  137.2262  164.0816 C.ar    1  UNL1        0.0031
     20 C         140.9291  137.6110  162.6356 C.ar    1  UNL1       -0.0001
     21 C         139.8487  138.5496  162.1867 C.ar    1  UNL1        0.0001
     22 C         138.8744  139.1036  163.1837 C.ar    1  UNL1        0.0276
     23 C         137.7212  138.5221  166.8935 C.3     1  UNL1        0.2525
     24 O         138.0063  139.2728  165.6265 O.3     1  UNL1       -0.4717
@<TRIPOS>BOND
     1    23    24    1
     2    24    17    1
     3    17    18   ar
     4    18    19   ar
     5    19    20   ar
     6    20    21   ar
     7    21    22   ar
     8    22    16    1
     9    16    14    1
    10    14     1    1
    11     2     1    1
    12     2     3    1
    13     3     4    1
    14     4     5    1
    15     5     6   ar
    16     6     7   ar
    17     7     8    1
    18     7     9   ar
    19     9    10   ar
    20    10    11   ar
    21    11    12    1
    22    12    13    1
    23    22    17   ar
    24     4     2    1
    25    11     5   ar
    26    14    15    1
@<TRIPOS>MOLECULE
*****
 24 26 0 0 0
SMALL
GASTEIGER

@<TRIPOS>ATOM
      1 C         138.3877  142.5528  164.5918 C.3     1  UNL1        0.0691
      2 C         139.5697  142.3714  165.4973 C.3     1  UNL1        0.0202
      3 C         140.2961  142.7022  166.7673 C.3     1  UNL1        0.0062
      4 C         140.8906  141.7263  165.7956 C.3     1  UNL1        0.0268
      5 C         141.9965  140.7904  165.4069 C.ar    1  UNL1        0.0137
      6 C         142.4459  139.7233  166.3606 C.ar    1  UNL1        0.0284
      7 C         143.5518  138.7875  165.9719 C.ar    1  UNL1        0.1400
      8 F         144.0012  137.7205  166.9255 F       1  UNL1       -0.2042
      9 C         144.2083  138.9186  164.6295 C.ar    1  UNL1        0.0327
     10 C         143.7588  139.9856  163.6759 C.ar    1  UNL1        0.0389
     11 C         142.6529  140.9215  164.0646 C.ar    1  UNL1        0.1348
     12 O         142.2035  141.9886  163.1109 O.3     1  UNL1       -0.4717
     13 C         142.8790  143.3278  163.1114 C.3     1  UNL1        0.2525
     14 N         137.5064  141.3837  164.2655 N.3     1  UNL1       -0.2937
     15 H         137.4540  140.8104  165.1076 H       1  UNL1        0.1236
     16 C         137.8679  140.4638  163.1372 C.3     1  UNL1        0.0987
     17 C         138.9670  138.6603  164.6503 C.ar    1  UNL1        0.1360
     18 C         139.9969  137.5895  164.8562 C.ar    1  UNL1        0.0366
     19 C         140.9577  137.2512  163.7550 C.ar    1  UNL1        0.0031
     20 C         140.8885  137.9837  162.4479 C.ar    1  UNL1       -0.0001
     21 C         139.8586  139.0546  162.2420 C.ar    1  UNL1        0.0001
     22 C         138.8978  139.3929  163.3432 C.ar    1  UNL1        0.0276
     23 C         138.5053  139.1710  167.1554 C.3     1  UNL1        0.2525
     24 O         138.0063  138.9987  165.7514 O.3     1  UNL1       -0.4717
@<TRIPOS>BOND
     1    23    24    1
     2    24    17    1
     3    17    18   ar
     4    18    19   ar
     5    19    20   ar
     6    20    21   ar
     7    21    22   ar
     8    22    16    1
     9    16    14    1
    10    14     1    1
    11     2     1    1
    12     2     3    1
    13     3     4    1
    14     4     5    1
    15     5     6   ar
    16     6     7   ar
    17     7     8    1
    18     7     9   ar
    19     9    10   ar
    20    10    11   ar
    21    11    12    1
    22    12    13    1
    23    22    17   ar
    24     4     2    1
    25    11     5   ar
    26    14    15    1
@<TRIPOS>MOLECULE
*****
 24 26 0 0 0
SMALL
GASTEIGER

@<TRIPOS>ATOM
      1 C         143.8167  144.5432  162.8349 C.3     1  UNL1        0.0691
      2 C         143.7915  143.8315  164.1551 C.3     1  UNL1        0.0202
      3 C         144.4617  143.4640  165.4457 C.3     1  UNL1        0.0062
      4 C         143.0776  142.9665  165.1511 C.3     1  UNL1        0.0268
      5 C         141.8664  142.1799  165.5561 C.ar    1  UNL1        0.0137
      6 C         141.4065  142.1929  166.9839 C.ar    1  UNL1        0.0284
      7 C         140.1953  141.4062  167.3889 C.ar    1  UNL1        0.1400
      8 F         139.7355  141.4193  168.8166 F       1  UNL1       -0.2042
      9 C         139.4439  140.6066  166.3662 C.ar    1  UNL1        0.0327
     10 C         139.9037  140.5935  164.9385 C.ar    1  UNL1        0.0389
     11 C         141.1150  141.3802  164.5334 C.ar    1  UNL1        0.1348
     12 O         141.5748  141.3672  163.1057 O.3     1  UNL1       -0.4717
     13 C         140.8630  140.5161  162.0963 C.3     1  UNL1        0.2525
     14 N         142.5355  145.0094  162.2096 N.3     1  UNL1       -0.2937
     15 H         142.7830  145.7355  161.5374 H       1  UNL1        0.1236
     16 C         141.4418  145.5702  163.0696 C.3     1  UNL1        0.0987
     17 C         139.5521  144.0633  162.1166 C.ar    1  UNL1        0.1360
     18 C         138.2832  143.2887  162.3162 C.ar    1  UNL1        0.0366
     19 C         137.6350  143.2465  163.6683 C.ar    1  UNL1        0.0031
     20 C         138.2557  143.9789  164.8208 C.ar    1  UNL1       -0.0001
     21 C         139.5247  144.7534  164.6212 C.ar    1  UNL1        0.0001
     22 C         140.1728  144.7956  163.2691 C.ar    1  UNL1        0.0276
     23 C         139.6878  143.2301  159.6595 C.3     1  UNL1        0.2525
     24 O         140.2002  144.1055  160.7645 O.3     1  UNL1       -0.4717
@<TRIPOS>BOND
     1    23    24    1
     2    24    17    1
     3    17    18   ar
     4    18    19   ar
     5    19    20   ar
     6    20    21   ar
     7    21    22   ar
     8    22    16    1
     9    16    14    1
    10    14     1    1
    11     2     1    1
    12     2     3    1
    13     3     4    1
    14     4     5    1
    15     5     6   ar
    16     6     7   ar
    17     7     8    1
    18     7     9   ar
    19     9    10   ar
    20    10    11   ar
    21    11    12    1
    22    12    13    1
    23    22    17   ar
    24     4     2    1
    25    11     5   ar
    26    14    15    1
@<TRIPOS>MOLECULE
*****
 24 26 0 0 0
SMALL
GASTEIGER

@<TRIPOS>ATOM
      1 C         142.6374  138.0201  162.4614 C.3     1  UNL1        0.0691
      2 C         143.2866  138.8051  163.5624 C.3     1  UNL1        0.0202
      3 C         144.5250  139.2948  164.2527 C.3     1  UNL1        0.0062
      4 C         143.1728  139.6749  164.7792 C.3     1  UNL1        0.0268
      5 C         142.3264  140.3964  165.7856 C.ar    1  UNL1        0.0137
      6 C         141.6789  139.6355  166.9045 C.ar    1  UNL1        0.0284
      7 C         140.8326  140.3571  167.9109 C.ar    1  UNL1        0.1400
      8 F         140.1851  139.5961  169.0297 F       1  UNL1       -0.2042
      9 C         140.6336  141.8396  167.7985 C.ar    1  UNL1        0.0327
     10 C         141.2811  142.6005  166.6797 C.ar    1  UNL1        0.0389
     11 C         142.1275  141.8789  165.6732 C.ar    1  UNL1        0.1348
     12 O         142.7749  142.6399  164.5544 O.3     1  UNL1       -0.4717
     13 C         144.1036  143.3023  164.7683 C.3     1  UNL1        0.2525
     14 N         141.4787  137.1177  162.7663 N.3     1  UNL1       -0.2937
     15 H         141.5646  136.3097  162.1496 H       1  UNL1        0.1236
     16 C         140.0745  137.6252  162.6220 C.3     1  UNL1        0.0987
     17 C         139.1272  139.7580  163.7638 C.ar    1  UNL1        0.1360
     18 C         138.4438  140.4144  164.9266 C.ar    1  UNL1        0.0366
     19 C         138.0244  139.5943  166.1104 C.ar    1  UNL1        0.0031
     20 C         138.2883  138.1179  166.1315 C.ar    1  UNL1       -0.0001
     21 C         138.9717  137.4615  164.9687 C.ar    1  UNL1        0.0001
     22 C         139.3911  138.2816  163.7848 C.ar    1  UNL1        0.0276
     23 C         139.8214  142.0437  162.7422 C.3     1  UNL1        0.2525
     24 O         139.5467  140.5781  162.5799 O.3     1  UNL1       -0.4717
@<TRIPOS>BOND
     1    23    24    1
     2    24    17    1
     3    17    18   ar
     4    18    19   ar
     5    19    20   ar
     6    20    21   ar
     7    21    22   ar
     8    22    16    1
     9    16    14    1
    10    14     1    1
    11     2     1    1
    12     2     3    1
    13     3     4    1
    14     4     5    1
    15     5     6   ar
    16     6     7   ar
    17     7     8    1
    18     7     9   ar
    19     9    10   ar
    20    10    11   ar
    21    11    12    1
    22    12    13    1
    23    22    17   ar
    24     4     2    1
    25    11     5   ar
    26    14    15    1
@<TRIPOS>MOLECULE
*****
 24 26 0 0 0
SMALL
GASTEIGER

@<TRIPOS>ATOM
      1 C         145.7453  141.8231  163.6427 C.3     1  UNL1        0.0691
      2 C         144.8333  142.5474  164.5881 C.3     1  UNL1        0.0202
      3 C         144.5360  143.7386  165.4498 C.3     1  UNL1        0.0062
      4 C         143.5511  142.6105  165.3639 C.3     1  UNL1        0.0268
      5 C         142.2422  141.9957  165.7622 C.ar    1  UNL1        0.0137
      6 C         141.1794  141.7599  164.7302 C.ar    1  UNL1        0.0284
      7 C         139.8705  141.1451  165.1286 C.ar    1  UNL1        0.1400
      8 F         138.8077  140.9093  164.0966 F       1  UNL1       -0.2042
      9 C         139.6243  140.7661  166.5588 C.ar    1  UNL1        0.0327
     10 C         140.6870  141.0018  167.5908 C.ar    1  UNL1        0.0389
     11 C         141.9960  141.6167  167.1925 C.ar    1  UNL1        0.1348
     12 O         143.0587  141.8524  168.2245 O.3     1  UNL1       -0.4717
     13 C         142.7278  142.5930  169.4862 C.3     1  UNL1        0.2525
     14 N         145.4044  140.4353  163.1871 N.3     1  UNL1       -0.2937
     15 H         144.6853  140.5291  162.4698 H       1  UNL1        0.1236
     16 C         144.9018  139.4240  164.1744 C.3     1  UNL1        0.0987
     17 C         143.1582  138.3673  162.5640 C.ar    1  UNL1        0.1360
     18 C         141.8364  137.6941  162.3410 C.ar    1  UNL1        0.0366
     19 C         140.9364  137.4046  163.5055 C.ar    1  UNL1        0.0031
     20 C         141.3581  137.7882  164.8929 C.ar    1  UNL1       -0.0001
     21 C         142.6798  138.4613  165.1159 C.ar    1  UNL1        0.0001
     22 C         143.5799  138.7508  163.9514 C.ar    1  UNL1        0.0276
     23 C         143.5464  139.4526  160.2356 C.3     1  UNL1        0.2525
     24 O         144.0583  138.6568  161.3995 O.3     1  UNL1       -0.4717
@<TRIPOS>BOND
     1    23    24    1
     2    24    17    1
     3    17    18   ar
     4    18    19   ar
     5    19    20   ar
     6    20    21   ar
     7    21    22   ar
     8    22    16    1
     9    16    14    1
    10    14     1    1
    11     2     1    1
    12     2     3    1
    13     3     4    1
    14     4     5    1
    15     5     6   ar
    16     6     7   ar
    17     7     8    1
    18     7     9   ar
    19     9    10   ar
    20    10    11   ar
    21    11    12    1
    22    12    13    1
    23    22    17   ar
    24     4     2    1
    25    11     5   ar
    26    14    15    1
@<TRIPOS>MOLECULE
*****
 24 26 0 0 0
SMALL
GASTEIGER

@<TRIPOS>ATOM
      1 C         141.3415  138.0723  161.5994 C.3     1  UNL1        0.0691
      2 C         141.4700  139.5520  161.8089 C.3     1  UNL1        0.0202
      3 C         142.2422  140.8263  161.6357 C.3     1  UNL1        0.0062
      4 C         140.9205  140.8407  162.3449 C.3     1  UNL1        0.0268
      5 C         139.8402  141.5930  163.0638 C.ar    1  UNL1        0.0137
      6 C         140.1906  142.4994  164.2066 C.ar    1  UNL1        0.0284
      7 C         139.1103  143.2518  164.9256 C.ar    1  UNL1        0.1400
      8 F         139.4606  144.1580  166.0683 F       1  UNL1       -0.2042
      9 C         137.6797  143.0978  164.5018 C.ar    1  UNL1        0.0327
     10 C         137.3293  142.1915  163.3591 C.ar    1  UNL1        0.0389
     11 C         138.4096  141.4391  162.6401 C.ar    1  UNL1        0.1348
     12 O         138.0592  140.5328  161.4973 O.3     1  UNL1       -0.4717
     13 C         137.7162  139.0960  161.7576 C.3     1  UNL1        0.2525
     14 N         141.7617  137.1224  162.6815 N.3     1  UNL1       -0.2937
     15 H         142.0263  136.2510  162.2220 H       1  UNL1        0.1236
     16 C         140.8021  136.7605  163.7762 C.3     1  UNL1        0.0987
     17 C         141.3169  138.6983  165.4284 C.ar    1  UNL1        0.1360
     18 C         140.8407  139.7498  166.3862 C.ar    1  UNL1        0.0366
     19 C         139.3733  139.9151  166.6496 C.ar    1  UNL1        0.0031
     20 C         138.3821  139.0289  165.9553 C.ar    1  UNL1       -0.0001
     21 C         138.8584  137.9774  164.9975 C.ar    1  UNL1        0.0001
     22 C         140.3258  137.8121  164.7340 C.ar    1  UNL1        0.0276
     23 C         143.7183  138.2168  166.2952 C.3     1  UNL1        0.2525
     24 O         142.7844  138.5330  165.1649 O.3     1  UNL1       -0.4717
@<TRIPOS>BOND
     1    23    24    1
     2    24    17    1
     3    17    18   ar
     4    18    19   ar
     5    19    20   ar
     6    20    21   ar
     7    21    22   ar
     8    22    16    1
     9    16    14    1
    10    14     1    1
    11     2     1    1
    12     2     3    1
    13     3     4    1
    14     4     5    1
    15     5     6   ar
    16     6     7   ar
    17     7     8    1
    18     7     9   ar
    19     9    10   ar
    20    10    11   ar
    21    11    12    1
    22    12    13    1
    23    22    17   ar
    24     4     2    1
    25    11     5   ar
    26    14    15    1
