@<TRIPOS>MOLECULE
*****
 25 28 0 0 0
SMALL
GASTEIGER

@<TRIPOS>ATOM
      1 C         138.4740  144.9272  165.8343 C.3     1  UNL1        0.0523
      2 C         138.4748  143.9827  164.6690 C.ar    1  UNL1        0.0656
      3 C         137.9218  144.2664  163.3038 C.ar    1  UNL1        0.0739
      4 C         138.1340  143.0476  162.4553 C.ar    1  UNL1        0.2434
      5 N         138.8180  142.0108  163.2962 N.ar    1  UNL1       -0.1277
      6 N         139.0286  142.5887  164.6643 N.ar    1  UNL1       -0.2308
      7 C         139.6790  141.8945  165.8241 C.ar    1  UNL1        0.0825
      8 C         139.1493  140.5746  166.3011 C.ar    1  UNL1        0.0191
      9 C         139.7995  139.8804  167.4609 C.ar    1  UNL1        0.0015
     10 C         140.9796  140.5060  168.1438 C.ar    1  UNL1        0.0001
     11 C         141.6298  139.8118  169.3036 C.ar    1  UNL1        0.0000
     12 C         142.8098  140.4374  169.9864 C.ar    1  UNL1        0.0000
     13 C         143.3395  141.7572  169.5094 C.ar    1  UNL1        0.0000
     14 C         142.6892  142.4514  168.3496 C.ar    1  UNL1        0.0000
     15 C         141.5093  141.8258  167.6668 C.ar    1  UNL1        0.0015
     16 C         140.8589  142.5200  166.5069 C.ar    1  UNL1        0.0191
     17 O         137.7325  142.8929  161.0184 O.3     1  UNL1       -0.4577
     18 C         138.5107  141.9816  160.1163 C.3     1  UNL1        0.2244
     19 C         138.1151  140.5408  159.9833 C.3     1  UNL1        0.1202
     20 N         138.8017  139.4950  160.8108 N.3     1  UNL1       -0.2653
     21 C         138.0519  138.7911  161.9028 C.3     1  UNL1        0.1047
     22 C         138.7385  137.7453  162.7303 C.3     1  UNL1        0.1595
     23 O         140.1748  137.4034  162.4659 O.3     1  UNL1       -0.3508
     24 C         140.9246  138.1072  161.3739 C.3     1  UNL1        0.1595
     25 C         140.2381  139.1530  160.5464 C.3     1  UNL1        0.1047
@<TRIPOS>BOND
     1     1     2    1
     2     2     3   ar
     3     3     4   ar
     4     4    17    1
     5    17    18    1
     6    18    19    1
     7    19    20    1
     8    20    21    1
     9    21    22    1
    10    22    23    1
    11    23    24    1
    12    24    25    1
    13     4     5   ar
    14     5     6   ar
    15     6     7    1
    16     7     8   ar
    17     8     9   ar
    18     9    10   ar
    19    10    11   ar
    20    11    12   ar
    21    12    13   ar
    22    13    14   ar
    23    14    15   ar
    24    15    16   ar
    25     6     2   ar
    26    16     7   ar
    27    25    20    1
    28    15    10   ar
@<TRIPOS>MOLECULE
*****
 25 28 0 0 0
SMALL
GASTEIGER

@<TRIPOS>ATOM
      1 C         138.4835  145.0490  165.7277 C.3     1  UNL1        0.0523
      2 C         138.6509  144.1492  164.5393 C.ar    1  UNL1        0.0656
      3 C         137.9653  144.3023  163.2139 C.ar    1  UNL1        0.0739
      4 C         138.4240  143.1860  162.3230 C.ar    1  UNL1        0.2434
      5 N         139.3930  142.3430  163.0979 N.ar    1  UNL1       -0.1277
      6 N         139.5332  142.9382  164.4675 N.ar    1  UNL1       -0.2308
      7 C         140.4030  142.4145  165.5717 C.ar    1  UNL1        0.0825
      8 C         141.8691  142.7312  165.5858 C.ar    1  UNL1        0.0191
      9 C         142.7389  142.2075  166.6899 C.ar    1  UNL1        0.0015
     10 C         142.1427  141.3670  167.7800 C.ar    1  UNL1        0.0001
     11 C         143.0125  140.8433  168.8841 C.ar    1  UNL1        0.0000
     12 C         142.4162  140.0029  169.9741 C.ar    1  UNL1        0.0000
     13 C         140.9501  139.6862  169.9600 C.ar    1  UNL1        0.0000
     14 C         140.0802  140.2099  168.8559 C.ar    1  UNL1        0.0000
     15 C         140.6765  141.0503  167.7659 C.ar    1  UNL1        0.0015
     16 C         139.8067  141.5741  166.6617 C.ar    1  UNL1        0.0191
     17 O         137.9899  142.9536  160.9062 O.3     1  UNL1       -0.4577
     18 C         138.5486  141.7976  160.1307 C.3     1  UNL1        0.2244
     19 C         137.9828  140.4217  160.3232 C.3     1  UNL1        0.1202
     20 N         138.7582  139.3925  161.0910 N.3     1  UNL1       -0.2653
     21 C         138.1119  138.6633  162.2313 C.3     1  UNL1        0.1047
     22 C         138.8873  137.6341  162.9991 C.3     1  UNL1        0.1595
     23 O         140.3089  137.3341  162.6265 O.3     1  UNL1       -0.3508
     24 C         140.9552  138.0633  161.4861 C.3     1  UNL1        0.1595
     25 C         140.1799  139.0925  160.7183 C.3     1  UNL1        0.1047
@<TRIPOS>BOND
     1     1     2    1
     2     2     3   ar
     3     3     4   ar
     4     4    17    1
     5    17    18    1
     6    18    19    1
     7    19    20    1
     8    20    21    1
     9    21    22    1
    10    22    23    1
    11    23    24    1
    12    24    25    1
    13     4     5   ar
    14     5     6   ar
    15     6     7    1
    16     7     8   ar
    17     8     9   ar
    18     9    10   ar
    19    10    11   ar
    20    11    12   ar
    21    12    13   ar
    22    13    14   ar
    23    14    15   ar
    24    15    16   ar
    25     6     2   ar
    26    16     7   ar
    27    25    20    1
    28    15    10   ar
@<TRIPOS>MOLECULE
*****
 25 28 0 0 0
SMALL
GASTEIGER

@<TRIPOS>ATOM
      1 C         138.4884  145.0201  165.7654 C.3     1  UNL1        0.0523
      2 C         138.8451  144.2569  164.5244 C.ar    1  UNL1        0.0656
      3 C         138.5546  144.6801  163.1148 C.ar    1  UNL1        0.0739
      4 C         139.0849  143.6211  162.1943 C.ar    1  UNL1        0.2434
      5 N         139.7030  142.5434  163.0348 N.ar    1  UNL1       -0.1277
      6 N         139.5548  142.9363  164.4748 N.ar    1  UNL1       -0.2308
      7 C         140.0325  142.1472  165.6577 C.ar    1  UNL1        0.0825
      8 C         139.3349  140.8763  166.0426 C.ar    1  UNL1        0.0191
      9 C         139.8125  140.0872  167.2255 C.ar    1  UNL1        0.0015
     10 C         140.9878  140.5690  168.0234 C.ar    1  UNL1        0.0001
     11 C         141.4654  139.7799  169.2063 C.ar    1  UNL1        0.0000
     12 C         142.6406  140.2617  170.0042 C.ar    1  UNL1        0.0000
     13 C         143.3382  141.5326  169.6192 C.ar    1  UNL1        0.0000
     14 C         142.8606  142.3217  168.4364 C.ar    1  UNL1        0.0000
     15 C         141.6854  141.8399  167.6385 C.ar    1  UNL1        0.0015
     16 C         141.2077  142.6290  166.4556 C.ar    1  UNL1        0.0191
     17 O         139.0101  143.6371  160.6963 O.3     1  UNL1       -0.4577
     18 C         140.2460  143.8950  159.8864 C.3     1  UNL1        0.2244
     19 C         141.3259  144.7840  160.4281 C.3     1  UNL1        0.1202
     20 N         142.5000  144.1864  161.1454 N.3     1  UNL1       -0.2653
     21 C         142.7960  144.5848  162.5609 C.3     1  UNL1        0.1047
     22 C         143.9701  143.9872  163.2782 C.3     1  UNL1        0.1595
     23 O         144.8480  142.9914  162.5801 O.3     1  UNL1       -0.3508
     24 C         144.5519  142.5931  161.1646 C.3     1  UNL1        0.1595
     25 C         143.3779  143.1906  160.4472 C.3     1  UNL1        0.1047
@<TRIPOS>BOND
     1     1     2    1
     2     2     3   ar
     3     3     4   ar
     4     4    17    1
     5    17    18    1
     6    18    19    1
     7    19    20    1
     8    20    21    1
     9    21    22    1
    10    22    23    1
    11    23    24    1
    12    24    25    1
    13     4     5   ar
    14     5     6   ar
    15     6     7    1
    16     7     8   ar
    17     8     9   ar
    18     9    10   ar
    19    10    11   ar
    20    11    12   ar
    21    12    13   ar
    22    13    14   ar
    23    14    15   ar
    24    15    16   ar
    25     6     2   ar
    26    16     7   ar
    27    25    20    1
    28    15    10   ar
@<TRIPOS>MOLECULE
*****
 25 28 0 0 0
SMALL
GASTEIGER

@<TRIPOS>ATOM
      1 C         145.9401  141.6364  163.5393 C.3     1  UNL1        0.0523
      2 C         144.6777  142.3470  163.1502 C.ar    1  UNL1        0.0656
      3 C         144.4838  143.1945  161.9277 C.ar    1  UNL1        0.0739
      4 C         143.0738  143.7062  161.9373 C.ar    1  UNL1        0.2434
      5 N         142.3962  143.1751  163.1656 N.ar    1  UNL1       -0.1277
      6 N         143.3874  142.3351  163.9152 N.ar    1  UNL1       -0.2308
      7 C         143.1332  141.6104  165.2037 C.ar    1  UNL1        0.0825
      8 C         142.8545  140.1365  165.1929 C.ar    1  UNL1        0.0191
      9 C         142.6002  139.4118  166.4813 C.ar    1  UNL1        0.0015
     10 C         142.6246  140.1609  167.7807 C.ar    1  UNL1        0.0001
     11 C         142.3703  139.4362  169.0691 C.ar    1  UNL1        0.0000
     12 C         142.3947  140.1853  170.3683 C.ar    1  UNL1        0.0000
     13 C         142.6734  141.6591  170.3792 C.ar    1  UNL1        0.0000
     14 C         142.9276  142.3839  169.0908 C.ar    1  UNL1        0.0000
     15 C         142.9033  141.6348  167.7915 C.ar    1  UNL1        0.0015
     16 C         143.1575  142.3595  166.5030 C.ar    1  UNL1        0.0191
     17 O         142.4508  144.5932  160.9005 O.3     1  UNL1       -0.4577
     18 C         140.9847  144.4837  160.6027 C.3     1  UNL1        0.2244
     19 C         139.9890  145.2076  161.4597 C.3     1  UNL1        0.1202
     20 N         139.1658  144.4483  162.4576 N.3     1  UNL1       -0.2653
     21 C         139.0638  144.9366  163.8723 C.3     1  UNL1        0.1047
     22 C         138.2406  144.1773  164.8702 C.3     1  UNL1        0.1595
     23 O         137.5195  142.9298  164.4535 O.3     1  UNL1       -0.3508
     24 C         137.6216  142.4415  163.0388 C.3     1  UNL1        0.1595
     25 C         138.4447  143.2008  162.0409 C.3     1  UNL1        0.1047
@<TRIPOS>BOND
     1     1     2    1
     2     2     3   ar
     3     3     4   ar
     4     4    17    1
     5    17    18    1
     6    18    19    1
     7    19    20    1
     8    20    21    1
     9    21    22    1
    10    22    23    1
    11    23    24    1
    12    24    25    1
    13     4     5   ar
    14     5     6   ar
    15     6     7    1
    16     7     8   ar
    17     8     9   ar
    18     9    10   ar
    19    10    11   ar
    20    11    12   ar
    21    12    13   ar
    22    13    14   ar
    23    14    15   ar
    24    15    16   ar
    25     6     2   ar
    26    16     7   ar
    27    25    20    1
    28    15    10   ar
@<TRIPOS>MOLECULE
*****
 25 28 0 0 0
SMALL
GASTEIGER

@<TRIPOS>ATOM
      1 C         144.0875  144.1222  163.1823 C.3     1  UNL1        0.0523
      2 C         143.8987  142.6512  162.9576 C.ar    1  UNL1        0.0656
      3 C         144.4212  141.8629  161.7932 C.ar    1  UNL1        0.0739
      4 C         143.9997  140.4347  161.9737 C.ar    1  UNL1        0.2434
      5 N         143.2166  140.3403  163.2496 N.ar    1  UNL1       -0.1277
      6 N         143.1542  141.7100  163.8576 N.ar    1  UNL1       -0.2308
      7 C         142.4678  142.0748  165.1405 C.ar    1  UNL1        0.0825
      8 C         141.0340  142.5153  165.1251 C.ar    1  UNL1        0.0191
      9 C         140.3475  142.8800  166.4079 C.ar    1  UNL1        0.0015
     10 C         141.0949  142.8043  167.7063 C.ar    1  UNL1        0.0001
     11 C         140.4085  143.1691  168.9892 C.ar    1  UNL1        0.0000
     12 C         141.1558  143.0933  170.2875 C.ar    1  UNL1        0.0000
     13 C         142.5896  142.6529  170.3029 C.ar    1  UNL1        0.0000
     14 C         143.2761  142.2881  169.0201 C.ar    1  UNL1        0.0000
     15 C         142.5287  142.3638  167.7218 C.ar    1  UNL1        0.0015
     16 C         143.2151  141.9991  166.4389 C.ar    1  UNL1        0.0191
     17 O         144.3072  139.3002  161.0419 O.3     1  UNL1       -0.4577
     18 C         143.6854  137.9541  161.2684 C.3     1  UNL1        0.2244
     19 C         142.2918  137.6808  160.7855 C.3     1  UNL1        0.1202
     20 N         141.1446  137.7070  161.7515 N.3     1  UNL1       -0.2653
     21 C         141.3713  137.3663  163.1945 C.3     1  UNL1        0.1047
     22 C         140.2240  137.3925  164.1605 C.3     1  UNL1        0.1595
     23 O         138.8502  137.7594  163.6834 O.3     1  UNL1       -0.3508
     24 C         138.6234  138.1001  162.2404 C.3     1  UNL1        0.1595
     25 C         139.7706  138.0739  161.2744 C.3     1  UNL1        0.1047
@<TRIPOS>BOND
     1     1     2    1
     2     2     3   ar
     3     3     4   ar
     4     4    17    1
     5    17    18    1
     6    18    19    1
     7    19    20    1
     8    20    21    1
     9    21    22    1
    10    22    23    1
    11    23    24    1
    12    24    25    1
    13     4     5   ar
    14     5     6   ar
    15     6     7    1
    16     7     8   ar
    17     8     9   ar
    18     9    10   ar
    19    10    11   ar
    20    11    12   ar
    21    12    13   ar
    22    13    14   ar
    23    14    15   ar
    24    15    16   ar
    25     6     2   ar
    26    16     7   ar
    27    25    20    1
    28    15    10   ar
@<TRIPOS>MOLECULE
*****
 25 28 0 0 0
SMALL
GASTEIGER

@<TRIPOS>ATOM
      1 C         138.5810  138.0812  165.6662 C.3     1  UNL1        0.0523
      2 C         139.0481  138.9187  164.5128 C.ar    1  UNL1        0.0656
      3 C         138.5886  138.7948  163.0902 C.ar    1  UNL1        0.0739
      4 C         139.3132  139.8267  162.2776 C.ar    1  UNL1        0.2434
      5 N         140.2204  140.5883  163.1979 N.ar    1  UNL1       -0.1277
      6 N         140.0565  140.0271  164.5793 N.ar    1  UNL1       -0.2308
      7 C         140.7750  140.4926  165.8111 C.ar    1  UNL1        0.0825
      8 C         142.0604  139.8378  166.2221 C.ar    1  UNL1        0.0191
      9 C         142.7788  140.3032  167.4538 C.ar    1  UNL1        0.0015
     10 C         142.2119  141.4235  168.2746 C.ar    1  UNL1        0.0001
     11 C         142.9304  141.8890  169.5063 C.ar    1  UNL1        0.0000
     12 C         142.3635  143.0092  170.3269 C.ar    1  UNL1        0.0000
     13 C         141.0781  143.6641  169.9159 C.ar    1  UNL1        0.0000
     14 C         140.3596  143.1987  168.6842 C.ar    1  UNL1        0.0000
     15 C         140.9265  142.0784  167.8635 C.ar    1  UNL1        0.0015
     16 C         140.2081  141.6129  166.6317 C.ar    1  UNL1        0.0191
     17 O         139.1579  140.0566  160.8035 O.3     1  UNL1       -0.4577
     18 C         138.1394  141.0362  160.3005 C.3     1  UNL1        0.2244
     19 C         138.5175  142.4734  160.0970 C.3     1  UNL1        0.1202
     20 N         138.7266  143.3690  161.2820 N.3     1  UNL1       -0.2653
     21 C         139.8531  144.3594  161.2841 C.3     1  UNL1        0.1047
     22 C         140.0622  145.2550  162.4691 C.3     1  UNL1        0.1595
     23 O         139.1447  145.1602  163.6519 O.3     1  UNL1       -0.3508
     24 C         138.0182  144.1699  163.6498 C.3     1  UNL1        0.1595
     25 C         137.8091  143.2743  162.4649 C.3     1  UNL1        0.1047
@<TRIPOS>BOND
     1     1     2    1
     2     2     3   ar
     3     3     4   ar
     4     4    17    1
     5    17    18    1
     6    18    19    1
     7    19    20    1
     8    20    21    1
     9    21    22    1
    10    22    23    1
    11    23    24    1
    12    24    25    1
    13     4     5   ar
    14     5     6   ar
    15     6     7    1
    16     7     8   ar
    17     8     9   ar
    18     9    10   ar
    19    10    11   ar
    20    11    12   ar
    21    12    13   ar
    22    13    14   ar
    23    14    15   ar
    24    15    16   ar
    25     6     2   ar
    26    16     7   ar
    27    25    20    1
    28    15    10   ar
@<TRIPOS>MOLECULE
*****
 25 28 0 0 0
SMALL
GASTEIGER

@<TRIPOS>ATOM
      1 C         141.1646  144.4344  162.7504 C.3     1  UNL1        0.0523
      2 C         140.1911  143.2958  162.8271 C.ar    1  UNL1        0.0656
      3 C         139.1759  142.9321  161.7844 C.ar    1  UNL1        0.0739
      4 C         138.4192  141.7325  162.2728 C.ar    1  UNL1        0.2434
      5 N         138.9667  141.3549  163.6173 N.ar    1  UNL1       -0.1277
      6 N         140.0617  142.3210  163.9598 N.ar    1  UNL1       -0.2308
      7 C         140.8833  142.3138  165.2149 C.ar    1  UNL1        0.0825
      8 C         142.3144  141.8664  165.1718 C.ar    1  UNL1        0.0191
      9 C         143.1360  141.8591  166.4268 C.ar    1  UNL1        0.0015
     10 C         142.5265  142.2992  167.7248 C.ar    1  UNL1        0.0001
     11 C         143.3481  142.2919  168.9798 C.ar    1  UNL1        0.0000
     12 C         142.7386  142.7321  170.2777 C.ar    1  UNL1        0.0000
     13 C         141.3075  143.1794  170.3208 C.ar    1  UNL1        0.0000
     14 C         140.4860  143.1867  169.0658 C.ar    1  UNL1        0.0000
     15 C         141.0954  142.7466  167.7679 C.ar    1  UNL1        0.0015
     16 C         140.2738  142.7539  166.5128 C.ar    1  UNL1        0.0191
     17 O         137.3098  141.0333  161.5446 O.3     1  UNL1       -0.4577
     18 C         137.5708  139.7257  160.8576 C.3     1  UNL1        0.2244
     19 C         137.6885  138.4656  161.6628 C.3     1  UNL1        0.1202
     20 N         138.9930  138.1092  162.3118 N.3     1  UNL1       -0.2653
     21 C         140.2540  138.0898  161.4998 C.3     1  UNL1        0.1047
     22 C         141.5585  137.7334  162.1489 C.3     1  UNL1        0.1595
     23 O         141.6020  137.3965  163.6098 O.3     1  UNL1       -0.3508
     24 C         140.3409  137.4159  164.4218 C.3     1  UNL1        0.1595
     25 C         139.0364  137.7723  163.7729 C.3     1  UNL1        0.1047
@<TRIPOS>BOND
     1     1     2    1
     2     2     3   ar
     3     3     4   ar
     4     4    17    1
     5    17    18    1
     6    18    19    1
     7    19    20    1
     8    20    21    1
     9    21    22    1
    10    22    23    1
    11    23    24    1
    12    24    25    1
    13     4     5   ar
    14     5     6   ar
    15     6     7    1
    16     7     8   ar
    17     8     9   ar
    18     9    10   ar
    19    10    11   ar
    20    11    12   ar
    21    12    13   ar
    22    13    14   ar
    23    14    15   ar
    24    15    16   ar
    25     6     2   ar
    26    16     7   ar
    27    25    20    1
    28    15    10   ar
@<TRIPOS>MOLECULE
*****
 25 28 0 0 0
SMALL
GASTEIGER

@<TRIPOS>ATOM
      1 C         141.1070  137.2534  164.7028 C.3     1  UNL1        0.0523
      2 C         139.9986  138.1298  164.1996 C.ar    1  UNL1        0.0656
      3 C         139.3131  138.0089  162.8708 C.ar    1  UNL1        0.0739
      4 C         138.2718  139.0854  162.7868 C.ar    1  UNL1        0.2434
      5 N         138.3138  139.8715  164.0636 N.ar    1  UNL1       -0.1277
      6 N         139.3809  139.2810  164.9367 N.ar    1  UNL1       -0.2308
      7 C         139.7634  139.7578  166.3066 C.ar    1  UNL1        0.0825
      8 C         138.8503  139.5073  167.4700 C.ar    1  UNL1        0.0191
      9 C         139.2327  139.9841  168.8398 C.ar    1  UNL1        0.0015
     10 C         140.5283  140.7115  169.0462 C.ar    1  UNL1        0.0001
     11 C         140.9107  141.1883  170.4160 C.ar    1  UNL1        0.0000
     12 C         142.2061  141.9157  170.6224 C.ar    1  UNL1        0.0000
     13 C         143.1192  142.1663  169.4590 C.ar    1  UNL1        0.0000
     14 C         142.7368  141.6894  168.0892 C.ar    1  UNL1        0.0000
     15 C         141.4413  140.9621  167.8828 C.ar    1  UNL1        0.0015
     16 C         141.0589  140.4852  166.5130 C.ar    1  UNL1        0.0191
     17 O         137.3505  139.3323  161.6293 O.3     1  UNL1       -0.4577
     18 C         137.7799  140.2304  160.5072 C.3     1  UNL1        0.2244
     19 C         139.0114  141.0745  160.6513 C.3     1  UNL1        0.1202
     20 N         138.9163  142.4426  161.2590 N.3     1  UNL1       -0.2653
     21 C         137.8203  142.7555  162.2341 C.3     1  UNL1        0.1047
     22 C         137.7252  144.1236  162.8417 C.3     1  UNL1        0.1595
     23 O         138.7259  145.1787  162.4743 O.3     1  UNL1       -0.3508
     24 C         139.8219  144.8658  161.4991 C.3     1  UNL1        0.1595
     25 C         139.9171  143.4977  160.8915 C.3     1  UNL1        0.1047
@<TRIPOS>BOND
     1     1     2    1
     2     2     3   ar
     3     3     4   ar
     4     4    17    1
     5    17    18    1
     6    18    19    1
     7    19    20    1
     8    20    21    1
     9    21    22    1
    10    22    23    1
    11    23    24    1
    12    24    25    1
    13     4     5   ar
    14     5     6   ar
    15     6     7    1
    16     7     8   ar
    17     8     9   ar
    18     9    10   ar
    19    10    11   ar
    20    11    12   ar
    21    12    13   ar
    22    13    14   ar
    23    14    15   ar
    24    15    16   ar
    25     6     2   ar
    26    16     7   ar
    27    25    20    1
    28    15    10   ar
@<TRIPOS>MOLECULE
*****
 25 28 0 0 0
SMALL
GASTEIGER

@<TRIPOS>ATOM
      1 C         141.1198  136.9006  164.0284 C.3     1  UNL1        0.0523
      2 C         141.8989  138.1136  163.6141 C.ar    1  UNL1        0.0656
      3 C         142.6487  138.2823  162.3258 C.ar    1  UNL1        0.0739
      4 C         143.2783  139.6438  162.3309 C.ar    1  UNL1        0.2434
      5 N         142.9176  140.3165  163.6221 N.ar    1  UNL1       -0.1277
      6 N         142.0652  139.3708  164.4152 N.ar    1  UNL1       -0.2308
      7 C         141.4813  139.6358  165.7713 C.ar    1  UNL1        0.0825
      8 C         139.9929  139.6885  165.9498 C.ar    1  UNL1        0.0191
      9 C         139.4091  139.9535  167.3058 C.ar    1  UNL1        0.0015
     10 C         140.3137  140.1657  168.4835 C.ar    1  UNL1        0.0001
     11 C         139.7298  140.4306  169.8395 C.ar    1  UNL1        0.0000
     12 C         140.6344  140.6428  171.0170 C.ar    1  UNL1        0.0000
     13 C         142.1228  140.5900  170.8386 C.ar    1  UNL1        0.0000
     14 C         142.7066  140.3251  169.4825 C.ar    1  UNL1        0.0000
     15 C         141.8021  140.1129  168.3050 C.ar    1  UNL1        0.0015
     16 C         142.3859  139.8479  166.9488 C.ar    1  UNL1        0.0191
     17 O         144.1206  140.2297  161.2368 O.3     1  UNL1       -0.4577
     18 C         144.7240  141.5928  161.4030 C.3     1  UNL1        0.2244
     19 C         144.0227  142.7965  160.8467 C.3     1  UNL1        0.1202
     20 N         143.3139  143.7442  161.7683 N.3     1  UNL1       -0.2653
     21 C         144.0183  144.2806  162.9791 C.3     1  UNL1        0.1047
     22 C         143.3094  145.2284  163.9007 C.3     1  UNL1        0.1595
     23 O         141.8963  145.6397  163.6115 O.3     1  UNL1       -0.3508
     24 C         141.1919  145.1033  162.4007 C.3     1  UNL1        0.1595
     25 C         141.9007  144.1556  161.4791 C.3     1  UNL1        0.1047
@<TRIPOS>BOND
     1     1     2    1
     2     2     3   ar
     3     3     4   ar
     4     4    17    1
     5    17    18    1
     6    18    19    1
     7    19    20    1
     8    20    21    1
     9    21    22    1
    10    22    23    1
    11    23    24    1
    12    24    25    1
    13     4     5   ar
    14     5     6   ar
    15     6     7    1
    16     7     8   ar
    17     8     9   ar
    18     9    10   ar
    19    10    11   ar
    20    11    12   ar
    21    12    13   ar
    22    13    14   ar
    23    14    15   ar
    24    15    16   ar
    25     6     2   ar
    26    16     7   ar
    27    25    20    1
    28    15    10   ar
