@<TRIPOS>MOLECULE
*****
 40 43 0 0 0
SMALL
GASTEIGER

@<TRIPOS>ATOM
      1 N         141.9337  145.0935  161.7718 N.am    1  UNL1       -0.2839
      2 C         140.8235  145.4359  160.8230 C.2     1  UNL1        0.2239
      3 O         139.4561  145.7529  161.3516 O.2     1  UNL1       -0.2751
      4 H         142.8312  144.8855  161.4248 H       1  UNL1        0.1512
      5 C         141.6763  145.0682  163.2493 C.3     1  UNL1        0.2237
      6 C         141.1351  142.2367  165.9770 C.ar    1  UNL1        0.0901
      7 N         140.9715  143.5147  165.2090 N.ar    1  UNL1       -0.1691
      8 N         141.8399  143.7900  164.0173 N.ar    1  UNL1       -0.1959
      9 C         142.8720  142.7874  163.5937 C.ar    1  UNL1        0.2801
     10 O         143.7404  143.0627  162.4020 O.2     1  UNL1       -0.2654
     11 C         143.0356  141.5093  164.3617 C.ar    1  UNL1        0.0862
     12 C         144.0676  140.5066  163.9380 C.ar    1  UNL1        0.1448
     13 F         144.9360  140.7819  162.7464 F       1  UNL1       -0.2040
     14 C         144.2312  139.2286  164.7060 C.ar    1  UNL1        0.0298
     15 C         143.3628  138.9532  165.8977 C.ar    1  UNL1        0.0023
     16 C         142.3307  139.9559  166.3213 C.ar    1  UNL1        0.0015
     17 C         142.1672  141.2339  165.5533 C.ar    1  UNL1        0.0226
     18 C         140.2666  141.9613  167.1686 C.3     1  UNL1        0.1569
     19 C         140.6745  142.4567  168.5244 C.2     1  UNL1        0.3231
     20 O         140.1097  143.7412  169.0548 O.2     1  UNL1       -0.2497
     21 O         141.6472  141.6677  169.3498 O.3     1  UNL1       -0.4482
     22 C         142.2681  139.2051  169.8977 C.3     1  UNL1        0.0513
     23 C         141.2615  140.3170  169.8761 C.3     1  UNL1        0.2086
     24 C         141.0809  145.4613  159.3454 C.3     1  UNL1        0.0865
     25 C         140.1471  144.7530  158.4092 C.3     1  UNL1        0.0269
     26 C         140.3157  143.2853  158.1497 C.3     1  UNL1        0.0727
     27 N         140.2594  142.3109  159.2888 N.3     1  UNL1       -0.2698
     28 C         141.5289  141.7686  159.8753 C.3     1  UNL1        0.0938
     29 C         141.4725  140.7942  161.0144 C.3     1  UNL1        0.1081
     30 N         140.1466  140.3622  161.5669 N.pl3   1  UNL1       -0.3049
     31 C         138.8770  140.9046  160.9803 C.3     1  UNL1        0.1081
     32 C         138.9334  141.8790  159.8413 C.3     1  UNL1        0.0938
     33 C         140.0902  139.3878  162.7059 C.ar    1  UNL1        0.0436
     34 C         140.9274  138.1438  162.6708 C.ar    1  UNL1        0.0142
     35 C         140.8710  137.1694  163.8099 C.ar    1  UNL1        0.0009
     36 C         139.9774  137.4391  164.9840 C.ar    1  UNL1       -0.0045
     37 C         139.1401  138.6832  165.0191 C.ar    1  UNL1       -0.0246
     38 C         138.2464  138.9529  166.1932 C.3     1  UNL1        0.0307
     39 C         139.1965  139.6576  163.8801 C.ar    1  UNL1       -0.0125
     40 C         138.3593  140.9016  163.9152 C.3     1  UNL1        0.0320
@<TRIPOS>BOND
     1    22    23    1
     2    23    21    1
     3    21    19    1
     4    19    20    2
     5    19    18    1
     6    18     6    1
     7     6     7   ar
     8     7     8   ar
     9     8     5    1
    10     5     1    1
    11     1     2   am
    12     2     3    2
    13     2    24    1
    14    24    25    1
    15    25    26    1
    16    26    27    1
    17    27    28    1
    18    28    29    1
    19    29    30    1
    20    30    33    1
    21    33    34   ar
    22    34    35   ar
    23    35    36   ar
    24    36    37   ar
    25    37    38    1
    26    37    39   ar
    27    39    40    1
    28    30    31    1
    29    31    32    1
    30     8     9   ar
    31     9    10    2
    32     9    11   ar
    33    11    12   ar
    34    12    13    1
    35    12    14   ar
    36    14    15   ar
    37    15    16   ar
    38    16    17   ar
    39    17     6   ar
    40    32    27    1
    41    17    11   ar
    42    39    33   ar
    43     1     4    1
@<TRIPOS>MOLECULE
*****
 40 43 0 0 0
SMALL
GASTEIGER

@<TRIPOS>ATOM
      1 N         143.1031  143.4976  160.1009 N.am    1  UNL1       -0.2839
      2 C         141.7116  143.8739  159.6862 C.2     1  UNL1        0.2239
      3 O         140.7338  142.8086  159.2876 O.2     1  UNL1       -0.2751
      4 H         143.7449  144.1968  160.3625 H       1  UNL1        0.1512
      5 C         143.5168  142.0559  160.1170 C.3     1  UNL1        0.2237
      6 C         141.8020  139.0633  162.0801 C.ar    1  UNL1        0.0901
      7 N         142.2376  139.9560  160.9562 N.ar    1  UNL1       -0.1691
      8 N         143.0812  141.1631  161.2410 N.ar    1  UNL1       -0.1959
      9 C         143.4893  141.4775  162.6498 C.ar    1  UNL1        0.2801
     10 O         144.3329  142.6846  162.9346 O.2     1  UNL1       -0.2654
     11 C         143.0537  140.5847  163.7738 C.ar    1  UNL1        0.0862
     12 C         143.4617  140.8991  165.1825 C.ar    1  UNL1        0.1448
     13 F         144.3054  142.1062  165.4674 F       1  UNL1       -0.2040
     14 C         143.0261  140.0063  166.3064 C.ar    1  UNL1        0.0298
     15 C         142.1825  138.7992  166.0216 C.ar    1  UNL1        0.0023
     16 C         141.7744  138.4849  164.6129 C.ar    1  UNL1        0.0015
     17 C         142.2100  139.3776  163.4889 C.ar    1  UNL1        0.0226
     18 C         140.9583  137.8562  161.7953 C.3     1  UNL1        0.1569
     19 C         139.4625  137.9680  161.8018 C.2     1  UNL1        0.3231
     20 O         138.6770  137.4525  162.9712 O.2     1  UNL1       -0.2497
     21 O         138.7522  138.5954  160.6391 O.3     1  UNL1       -0.4482
     22 C         138.1457  141.1052  160.9273 C.3     1  UNL1        0.0513
     23 C         137.7278  139.6655  160.8748 C.3     1  UNL1        0.2086
     24 C         141.2979  145.3157  159.6700 C.3     1  UNL1        0.0865
     25 C         139.9821  145.7250  160.2625 C.3     1  UNL1        0.0269
     26 C         139.9077  146.1582  161.6967 C.3     1  UNL1        0.0727
     27 N         139.8486  145.1311  162.7883 N.3     1  UNL1       -0.2698
     28 C         138.5211  144.6521  163.2964 C.3     1  UNL1        0.0938
     29 C         138.4620  143.6250  164.3880 C.3     1  UNL1        0.1081
     30 N         139.7305  143.0769  164.9715 N.pl3   1  UNL1       -0.3049
     31 C         141.0581  143.5560  164.4634 C.3     1  UNL1        0.1081
     32 C         141.1171  144.5831  163.3718 C.3     1  UNL1        0.0938
     33 C         139.6715  142.0499  166.0631 C.ar    1  UNL1        0.0436
     34 C         140.3439  142.3133  167.3778 C.ar    1  UNL1        0.0142
     35 C         140.2850  141.2862  168.4695 C.ar    1  UNL1        0.0009
     36 C         139.5535  139.9957  168.2464 C.ar    1  UNL1       -0.0045
     37 C         138.8810  139.7324  166.9317 C.ar    1  UNL1       -0.0246
     38 C         138.1496  138.4420  166.7086 C.3     1  UNL1        0.0307
     39 C         138.9400  140.7595  165.8401 C.ar    1  UNL1       -0.0125
     40 C         138.2676  140.4961  164.5254 C.3     1  UNL1        0.0320
@<TRIPOS>BOND
     1    22    23    1
     2    23    21    1
     3    21    19    1
     4    19    20    2
     5    19    18    1
     6    18     6    1
     7     6     7   ar
     8     7     8   ar
     9     8     5    1
    10     5     1    1
    11     1     2   am
    12     2     3    2
    13     2    24    1
    14    24    25    1
    15    25    26    1
    16    26    27    1
    17    27    28    1
    18    28    29    1
    19    29    30    1
    20    30    33    1
    21    33    34   ar
    22    34    35   ar
    23    35    36   ar
    24    36    37   ar
    25    37    38    1
    26    37    39   ar
    27    39    40    1
    28    30    31    1
    29    31    32    1
    30     8     9   ar
    31     9    10    2
    32     9    11   ar
    33    11    12   ar
    34    12    13    1
    35    12    14   ar
    36    14    15   ar
    37    15    16   ar
    38    16    17   ar
    39    17     6   ar
    40    32    27    1
    41    17    11   ar
    42    39    33   ar
    43     1     4    1
@<TRIPOS>MOLECULE
*****
 40 43 0 0 0
SMALL
GASTEIGER

@<TRIPOS>ATOM
      1 N         138.7878  139.5874  158.4398 N.am    1  UNL1       -0.2839
      2 C         140.0418  140.2747  157.9870 C.2     1  UNL1        0.2239
      3 O         140.2533  141.7277  158.2937 O.2     1  UNL1       -0.2751
      4 H         138.6490  138.6337  158.2385 H       1  UNL1        0.1512
      5 C         137.7454  140.3531  159.1994 C.3     1  UNL1        0.2237
      6 C         137.8469  142.1371  162.7430 C.ar    1  UNL1        0.0901
      7 N         137.6956  141.9276  161.2654 N.ar    1  UNL1       -0.1691
      8 N         137.8967  140.5625  160.6770 N.ar    1  UNL1       -0.1959
      9 C         138.2491  139.4070  161.5661 C.ar    1  UNL1        0.2801
     10 O         138.4501  138.0420  160.9777 O.2     1  UNL1       -0.2654
     11 C         138.4004  139.6165  163.0438 C.ar    1  UNL1        0.0862
     12 C         138.7527  138.4610  163.9329 C.ar    1  UNL1        0.1448
     13 F         138.9538  137.0960  163.3445 F       1  UNL1       -0.2040
     14 C         138.9040  138.6705  165.4104 C.ar    1  UNL1        0.0298
     15 C         138.7030  140.0356  165.9988 C.ar    1  UNL1        0.0023
     16 C         138.3506  141.1911  165.1097 C.ar    1  UNL1        0.0015
     17 C         138.1993  140.9816  163.6322 C.ar    1  UNL1        0.0226
     18 C         137.6458  143.5022  163.3314 C.3     1  UNL1        0.1569
     19 C         138.7290  144.5338  163.2202 C.2     1  UNL1        0.3231
     20 O         139.6549  144.7767  164.3751 O.2     1  UNL1       -0.2497
     21 O         138.8864  145.3226  161.9540 O.3     1  UNL1       -0.4482
     22 C         140.8034  143.7746  161.1301 C.3     1  UNL1        0.0513
     23 C         140.0665  145.0792  161.0606 C.3     1  UNL1        0.2086
     24 C         141.0843  139.5090  157.2273 C.3     1  UNL1        0.0865
     25 C         142.5214  139.5749  157.6521 C.3     1  UNL1        0.0269
     26 C         143.0715  138.5492  158.5982 C.3     1  UNL1        0.0727
     27 N         143.0021  138.7806  160.0787 N.3     1  UNL1       -0.2698
     28 C         143.9911  139.6923  160.7425 C.3     1  UNL1        0.0938
     29 C         143.9216  139.9237  162.2229 C.3     1  UNL1        0.1081
     30 N         142.8631  139.2434  163.0395 N.pl3   1  UNL1       -0.3049
     31 C         141.8741  138.3317  162.3756 C.3     1  UNL1        0.1081
     32 C         141.9436  138.1003  160.8952 C.3     1  UNL1        0.0938
     33 C         142.7936  139.4748  164.5199 C.ar    1  UNL1        0.0436
     34 C         143.2712  138.4150  165.4678 C.ar    1  UNL1        0.0142
     35 C         143.2018  138.6463  166.9483 C.ar    1  UNL1        0.0009
     36 C         142.6546  139.9375  167.4808 C.ar    1  UNL1       -0.0045
     37 C         142.1770  140.9973  166.5327 C.ar    1  UNL1       -0.0246
     38 C         141.6299  142.2885  167.0652 C.3     1  UNL1        0.0307
     39 C         142.2465  140.7659  165.0524 C.ar    1  UNL1       -0.0125
     40 C         141.7689  141.8258  164.1044 C.3     1  UNL1        0.0320
@<TRIPOS>BOND
     1    22    23    1
     2    23    21    1
     3    21    19    1
     4    19    20    2
     5    19    18    1
     6    18     6    1
     7     6     7   ar
     8     7     8   ar
     9     8     5    1
    10     5     1    1
    11     1     2   am
    12     2     3    2
    13     2    24    1
    14    24    25    1
    15    25    26    1
    16    26    27    1
    17    27    28    1
    18    28    29    1
    19    29    30    1
    20    30    33    1
    21    33    34   ar
    22    34    35   ar
    23    35    36   ar
    24    36    37   ar
    25    37    38    1
    26    37    39   ar
    27    39    40    1
    28    30    31    1
    29    31    32    1
    30     8     9   ar
    31     9    10    2
    32     9    11   ar
    33    11    12   ar
    34    12    13    1
    35    12    14   ar
    36    14    15   ar
    37    15    16   ar
    38    16    17   ar
    39    17     6   ar
    40    32    27    1
    41    17    11   ar
    42    39    33   ar
    43     1     4    1
@<TRIPOS>MOLECULE
*****
 40 43 0 0 0
SMALL
GASTEIGER

@<TRIPOS>ATOM
      1 N         142.1167  142.6698  158.4545 N.am    1  UNL1       -0.2839
      2 C         143.3384  141.8401  158.7170 C.2     1  UNL1        0.2239
      3 O         144.3995  142.3421  159.6507 O.2     1  UNL1       -0.2751
      4 H         141.4202  142.3404  157.8416 H       1  UNL1        0.1512
      5 C         141.9562  144.0016  159.1257 C.3     1  UNL1        0.2237
      6 C         142.3304  144.5184  163.0427 C.ar    1  UNL1        0.0901
      7 N         142.6699  144.4502  161.5833 N.ar    1  UNL1       -0.1691
      8 N         141.6166  144.0698  160.5852 N.ar    1  UNL1       -0.1959
      9 C         140.2240  143.7577  161.0467 C.ar    1  UNL1        0.2801
     10 O         139.1708  143.3773  160.0487 O.2     1  UNL1       -0.2654
     11 C         139.8845  143.8259  162.5062 C.ar    1  UNL1        0.0862
     12 C         138.4918  143.5137  162.9677 C.ar    1  UNL1        0.1448
     13 F         137.4386  143.1334  161.9696 F       1  UNL1       -0.2040
     14 C         138.1523  143.5820  164.4271 C.ar    1  UNL1        0.0298
     15 C         139.2056  143.9623  165.4251 C.ar    1  UNL1        0.0023
     16 C         140.5982  144.2745  164.9637 C.ar    1  UNL1        0.0015
     17 C         140.9377  144.2063  163.5042 C.ar    1  UNL1        0.0226
     18 C         143.3836  144.8988  164.0407 C.3     1  UNL1        0.1569
     19 C         144.0751  143.8367  164.8430 C.2     1  UNL1        0.3231
     20 O         145.1017  144.2197  165.8675 O.2     1  UNL1       -0.2497
     21 O         143.7401  142.3915  164.6209 O.3     1  UNL1       -0.4482
     22 C         145.6111  141.6739  162.9672 C.3     1  UNL1        0.0513
     23 C         144.8141  141.4267  164.2137 C.3     1  UNL1        0.2086
     24 C         143.4989  140.5083  158.0457 C.3     1  UNL1        0.0865
     25 C         143.0984  139.2535  158.7635 C.3     1  UNL1        0.0269
     26 C         143.7471  138.8961  160.0678 C.3     1  UNL1        0.0727
     27 N         143.0105  139.1138  161.3563 N.3     1  UNL1       -0.2698
     28 C         141.9175  140.1383  161.4315 C.3     1  UNL1        0.0938
     29 C         141.1810  140.3561  162.7200 C.3     1  UNL1        0.1081
     30 N         141.5375  139.5493  163.9332 N.pl3   1  UNL1       -0.3049
     31 C         142.6305  138.5248  163.8580 C.3     1  UNL1        0.1081
     32 C         143.3670  138.3071  162.5696 C.3     1  UNL1        0.0938
     33 C         140.8010  139.7671  165.2217 C.ar    1  UNL1        0.0436
     34 C         141.3178  140.7572  166.2229 C.ar    1  UNL1        0.0142
     35 C         140.5813  140.9749  167.5114 C.ar    1  UNL1        0.0009
     36 C         139.3280  140.2025  167.7986 C.ar    1  UNL1       -0.0045
     37 C         138.8111  139.2124  166.7973 C.ar    1  UNL1       -0.0246
     38 C         137.5577  138.4400  167.0846 C.3     1  UNL1        0.0307
     39 C         139.5476  138.9947  165.5089 C.ar    1  UNL1       -0.0125
     40 C         139.0307  138.0046  164.5077 C.3     1  UNL1        0.0320
@<TRIPOS>BOND
     1    22    23    1
     2    23    21    1
     3    21    19    1
     4    19    20    2
     5    19    18    1
     6    18     6    1
     7     6     7   ar
     8     7     8   ar
     9     8     5    1
    10     5     1    1
    11     1     2   am
    12     2     3    2
    13     2    24    1
    14    24    25    1
    15    25    26    1
    16    26    27    1
    17    27    28    1
    18    28    29    1
    19    29    30    1
    20    30    33    1
    21    33    34   ar
    22    34    35   ar
    23    35    36   ar
    24    36    37   ar
    25    37    38    1
    26    37    39   ar
    27    39    40    1
    28    30    31    1
    29    31    32    1
    30     8     9   ar
    31     9    10    2
    32     9    11   ar
    33    11    12   ar
    34    12    13    1
    35    12    14   ar
    36    14    15   ar
    37    15    16   ar
    38    16    17   ar
    39    17     6   ar
    40    32    27    1
    41    17    11   ar
    42    39    33   ar
    43     1     4    1
@<TRIPOS>MOLECULE
*****
 40 43 0 0 0
SMALL
GASTEIGER

@<TRIPOS>ATOM
      1 N         141.3686  142.0504  158.3729 N.am    1  UNL1       -0.2839
      2 C         140.2317  142.9744  158.6948 C.2     1  UNL1        0.2239
      3 O         138.9364  142.4193  159.2085 O.2     1  UNL1       -0.2751
      4 H         142.2188  142.4147  158.0357 H       1  UNL1        0.1512
      5 C         141.2101  140.5712  158.5648 C.3     1  UNL1        0.2237
      6 C         142.9421  139.4986  161.9706 C.ar    1  UNL1        0.0901
      7 N         142.7377  140.1050  160.6141 N.ar    1  UNL1       -0.1691
      8 N         141.4145  139.9647  159.9215 N.ar    1  UNL1       -0.1959
      9 C         140.2959  139.2180  160.5855 C.ar    1  UNL1        0.2801
     10 O         138.9728  139.0776  159.8929 O.2     1  UNL1       -0.2654
     11 C         140.5003  138.6115  161.9421 C.ar    1  UNL1        0.0862
     12 C         139.3817  137.8647  162.6061 C.ar    1  UNL1        0.1448
     13 F         138.0586  137.7244  161.9135 F       1  UNL1       -0.2040
     14 C         139.5861  137.2583  163.9627 C.ar    1  UNL1        0.0298
     15 C         140.9092  137.3987  164.6553 C.ar    1  UNL1        0.0023
     16 C         142.0279  138.1454  163.9913 C.ar    1  UNL1        0.0015
     17 C         141.8234  138.7518  162.6347 C.ar    1  UNL1        0.0226
     18 C         144.2652  139.6389  162.6632 C.3     1  UNL1        0.1569
     19 C         144.6626  140.9557  163.2617 C.2     1  UNL1        0.3231
     20 O         145.8390  141.7056  162.7105 O.2     1  UNL1       -0.2497
     21 O         143.8836  141.5226  164.4114 O.3     1  UNL1       -0.4482
     22 C         143.8537  144.1204  164.4413 C.3     1  UNL1        0.0513
     23 C         144.3053  142.8196  165.0361 C.3     1  UNL1        0.2086
     24 C         140.3902  144.4537  158.5029 C.3     1  UNL1        0.0865
     25 C         140.9906  145.2913  159.5927 C.3     1  UNL1        0.0269
     26 C         140.1783  145.6397  160.8046 C.3     1  UNL1        0.0727
     27 N         140.1378  144.7025  161.9752 N.3     1  UNL1       -0.2698
     28 C         139.2877  145.0279  163.1674 C.3     1  UNL1        0.0938
     29 C         139.2473  144.0908  164.3380 C.3     1  UNL1        0.1081
     30 N         140.0570  142.8283  164.3164 N.pl3   1  UNL1       -0.3049
     31 C         140.9071  142.5029  163.1241 C.3     1  UNL1        0.1081
     32 C         140.9475  143.4400  161.9536 C.3     1  UNL1        0.0938
     33 C         140.0166  141.8912  165.4869 C.ar    1  UNL1        0.0436
     34 C         140.9927  142.0563  166.6137 C.ar    1  UNL1        0.0142
     35 C         140.9523  141.1191  167.7844 C.ar    1  UNL1        0.0009
     36 C         139.9358  140.0170  167.8280 C.ar    1  UNL1       -0.0045
     37 C         138.9596  139.8520  166.7010 C.ar    1  UNL1       -0.0246
     38 C         137.9431  138.7498  166.7447 C.3     1  UNL1        0.0307
     39 C         139.0000  140.7891  165.5305 C.ar    1  UNL1       -0.0125
     40 C         138.0239  140.6240  164.4037 C.3     1  UNL1        0.0320
@<TRIPOS>BOND
     1    22    23    1
     2    23    21    1
     3    21    19    1
     4    19    20    2
     5    19    18    1
     6    18     6    1
     7     6     7   ar
     8     7     8   ar
     9     8     5    1
    10     5     1    1
    11     1     2   am
    12     2     3    2
    13     2    24    1
    14    24    25    1
    15    25    26    1
    16    26    27    1
    17    27    28    1
    18    28    29    1
    19    29    30    1
    20    30    33    1
    21    33    34   ar
    22    34    35   ar
    23    35    36   ar
    24    36    37   ar
    25    37    38    1
    26    37    39   ar
    27    39    40    1
    28    30    31    1
    29    31    32    1
    30     8     9   ar
    31     9    10    2
    32     9    11   ar
    33    11    12   ar
    34    12    13    1
    35    12    14   ar
    36    14    15   ar
    37    15    16   ar
    38    16    17   ar
    39    17     6   ar
    40    32    27    1
    41    17    11   ar
    42    39    33   ar
    43     1     4    1
@<TRIPOS>MOLECULE
*****
 40 43 0 0 0
SMALL
GASTEIGER

@<TRIPOS>ATOM
      1 N         139.7306  139.8345  158.6970 N.am    1  UNL1       -0.2839
      2 C         141.0887  140.3935  159.0022 C.2     1  UNL1        0.2239
      3 O         141.2294  141.5455  159.9525 O.2     1  UNL1       -0.2751
      4 H         139.6383  139.0784  158.0733 H       1  UNL1        0.1512
      5 C         138.5133  140.4276  159.3421 C.3     1  UNL1        0.2237
      6 C         138.0527  141.9449  162.9802 C.ar    1  UNL1        0.0901
      7 N         138.1369  141.8464  161.4858 N.ar    1  UNL1       -0.1691
      8 N         138.4290  140.5261  160.8365 N.ar    1  UNL1       -0.1959
      9 C         138.6369  139.3044  161.6816 C.ar    1  UNL1        0.2801
     10 O         138.9290  137.9841  161.0323 O.2     1  UNL1       -0.2654
     11 C         138.5527  139.4029  163.1760 C.ar    1  UNL1        0.0862
     12 C         138.7606  138.1812  164.0211 C.ar    1  UNL1        0.1448
     13 F         139.0527  136.8610  163.3718 F       1  UNL1       -0.2040
     14 C         138.6763  138.2798  165.5155 C.ar    1  UNL1        0.0298
     15 C         138.3842  139.6001  166.1647 C.ar    1  UNL1        0.0023
     16 C         138.1764  140.8218  165.3197 C.ar    1  UNL1        0.0015
     17 C         138.2606  140.7232  163.8253 C.ar    1  UNL1        0.0226
     18 C         137.7606  143.2652  163.6295 C.3     1  UNL1        0.1569
     19 C         138.6663  144.4363  163.3884 C.2     1  UNL1        0.3231
     20 O         138.4197  145.3477  162.2228 O.2     1  UNL1       -0.2497
     21 O         139.8187  144.6960  164.3128 O.3     1  UNL1       -0.4482
     22 C         141.8296  144.0672  162.7925 C.3     1  UNL1        0.0513
     23 C         141.1729  145.0149  163.7520 C.3     1  UNL1        0.2086
     24 C         142.3062  139.8004  158.3570 C.3     1  UNL1        0.0865
     25 C         143.6608  140.0291  158.9593 C.3     1  UNL1        0.0269
     26 C         144.1022  139.2188  160.1418 C.3     1  UNL1        0.0727
     27 N         143.6407  139.5902  161.5200 N.3     1  UNL1       -0.2698
     28 C         142.4468  138.9088  162.1201 C.3     1  UNL1        0.0938
     29 C         141.9853  139.2802  163.4982 C.3     1  UNL1        0.1081
     30 N         142.7177  140.3329  164.2762 N.pl3   1  UNL1       -0.3049
     31 C         143.9117  141.0143  163.6760 C.3     1  UNL1        0.1081
     32 C         144.3732  140.6429  162.2979 C.3     1  UNL1        0.0938
     33 C         142.2563  140.7043  165.6542 C.ar    1  UNL1        0.0436
     34 C         141.4761  141.9673  165.8689 C.ar    1  UNL1        0.0142
     35 C         141.0146  142.3387  167.2470 C.ar    1  UNL1        0.0009
     36 C         141.3333  141.4471  168.4104 C.ar    1  UNL1       -0.0045
     37 C         142.1136  140.1840  168.1957 C.ar    1  UNL1       -0.0246
     38 C         142.4323  139.2924  169.3590 C.3     1  UNL1        0.0307
     39 C         142.5750  139.8127  166.8176 C.ar    1  UNL1       -0.0125
     40 C         143.3552  138.5497  166.6029 C.3     1  UNL1        0.0320
@<TRIPOS>BOND
     1    22    23    1
     2    23    21    1
     3    21    19    1
     4    19    20    2
     5    19    18    1
     6    18     6    1
     7     6     7   ar
     8     7     8   ar
     9     8     5    1
    10     5     1    1
    11     1     2   am
    12     2     3    2
    13     2    24    1
    14    24    25    1
    15    25    26    1
    16    26    27    1
    17    27    28    1
    18    28    29    1
    19    29    30    1
    20    30    33    1
    21    33    34   ar
    22    34    35   ar
    23    35    36   ar
    24    36    37   ar
    25    37    38    1
    26    37    39   ar
    27    39    40    1
    28    30    31    1
    29    31    32    1
    30     8     9   ar
    31     9    10    2
    32     9    11   ar
    33    11    12   ar
    34    12    13    1
    35    12    14   ar
    36    14    15   ar
    37    15    16   ar
    38    16    17   ar
    39    17     6   ar
    40    32    27    1
    41    17    11   ar
    42    39    33   ar
    43     1     4    1
@<TRIPOS>MOLECULE
*****
 40 43 0 0 0
SMALL
GASTEIGER

@<TRIPOS>ATOM
      1 N         141.7901  139.4461  159.1320 N.am    1  UNL1       -0.2839
      2 C         141.4347  140.5651  158.1985 C.2     1  UNL1        0.2239
      3 O         139.9977  140.8341  157.8628 O.2     1  UNL1       -0.2751
      4 H         142.7333  139.2696  159.3523 H       1  UNL1        0.1512
      5 C         140.7085  138.5961  159.7298 C.3     1  UNL1        0.2237
      6 C         138.4485  140.5710  162.3263 C.ar    1  UNL1        0.0901
      7 N         139.0995  140.1606  161.0388 N.ar    1  UNL1       -0.1691
      8 N         140.0574  139.0065  161.0173 N.ar    1  UNL1       -0.1959
      9 C         140.3642  138.2628  162.2833 C.ar    1  UNL1        0.2801
     10 O         141.3221  137.1087  162.2618 O.2     1  UNL1       -0.2654
     11 C         139.7132  138.6732  163.5709 C.ar    1  UNL1        0.0862
     12 C         140.0200  137.9295  164.8368 C.ar    1  UNL1        0.1448
     13 F         140.9779  136.7754  164.8153 F       1  UNL1       -0.2040
     14 C         139.3689  138.3399  166.1243 C.ar    1  UNL1        0.0298
     15 C         138.4110  139.4940  166.1458 C.ar    1  UNL1        0.0023
     16 C         138.1042  140.2377  164.8798 C.ar    1  UNL1        0.0015
     17 C         138.7553  139.8273  163.5924 C.ar    1  UNL1        0.0226
     18 C         137.4906  141.7251  162.3478 C.3     1  UNL1        0.1569
     19 C         137.9472  143.0870  161.9157 C.2     1  UNL1        0.3231
     20 O         138.6030  143.2691  160.5789 O.2     1  UNL1       -0.2497
     21 O         137.7482  144.2668  162.8204 O.3     1  UNL1       -0.4482
     22 C         138.6210  144.7750  165.2141 C.3     1  UNL1        0.0513
     23 C         138.8538  144.7064  163.7339 C.3     1  UNL1        0.2086
     24 C         142.5164  141.4153  157.6006 C.3     1  UNL1        0.0865
     25 C         142.7895  142.7817  158.1559 C.3     1  UNL1        0.0269
     26 C         143.8291  142.9640  159.2217 C.3     1  UNL1        0.0727
     27 N         143.6265  142.3576  160.5787 N.3     1  UNL1       -0.2698
     28 C         142.2424  142.2226  161.1408 C.3     1  UNL1        0.0938
     29 C         142.0399  141.6161  162.4978 C.3     1  UNL1        0.1081
     30 N         143.2215  141.1447  163.2925 N.pl3   1  UNL1       -0.3049
     31 C         144.6056  141.2797  162.7303 C.3     1  UNL1        0.1081
     32 C         144.8081  141.8861  161.3734 C.3     1  UNL1        0.0938
     33 C         143.0190  140.5383  164.6494 C.ar    1  UNL1        0.0436
     34 C         143.5582  139.1707  164.9477 C.ar    1  UNL1        0.0142
     35 C         143.3557  138.5642  166.3047 C.ar    1  UNL1        0.0009
     36 C         142.6140  139.3253  167.3632 C.ar    1  UNL1       -0.0045
     37 C         142.0747  140.6929  167.0649 C.ar    1  UNL1       -0.0246
     38 C         141.3330  141.4541  168.1234 C.3     1  UNL1        0.0307
     39 C         142.2772  141.2994  165.7080 C.ar    1  UNL1       -0.0125
     40 C         141.7380  142.6669  165.4096 C.3     1  UNL1        0.0320
@<TRIPOS>BOND
     1    22    23    1
     2    23    21    1
     3    21    19    1
     4    19    20    2
     5    19    18    1
     6    18     6    1
     7     6     7   ar
     8     7     8   ar
     9     8     5    1
    10     5     1    1
    11     1     2   am
    12     2     3    2
    13     2    24    1
    14    24    25    1
    15    25    26    1
    16    26    27    1
    17    27    28    1
    18    28    29    1
    19    29    30    1
    20    30    33    1
    21    33    34   ar
    22    34    35   ar
    23    35    36   ar
    24    36    37   ar
    25    37    38    1
    26    37    39   ar
    27    39    40    1
    28    30    31    1
    29    31    32    1
    30     8     9   ar
    31     9    10    2
    32     9    11   ar
    33    11    12   ar
    34    12    13    1
    35    12    14   ar
    36    14    15   ar
    37    15    16   ar
    38    16    17   ar
    39    17     6   ar
    40    32    27    1
    41    17    11   ar
    42    39    33   ar
    43     1     4    1
@<TRIPOS>MOLECULE
*****
 40 43 0 0 0
SMALL
GASTEIGER

@<TRIPOS>ATOM
      1 N         139.8597  139.3995  159.3665 N.am    1  UNL1       -0.2839
      2 C         139.5649  138.9397  157.9695 C.2     1  UNL1        0.2239
      3 O         138.4102  139.5280  157.2142 O.2     1  UNL1       -0.2751
      4 H         140.6175  139.0134  159.8622 H       1  UNL1        0.1512
      5 C         138.9998  140.4478  160.0081 C.3     1  UNL1        0.2237
      6 C         140.6783  140.7562  163.5911 C.ar    1  UNL1        0.0901
      7 N         140.3333  140.2346  162.2277 N.ar    1  UNL1       -0.1691
      8 N         139.3448  140.9694  161.3716 N.ar    1  UNL1       -0.1959
      9 C         138.7013  142.2258  161.8789 C.ar    1  UNL1        0.2801
     10 O         137.7128  142.9606  161.0227 O.2     1  UNL1       -0.2654
     11 C         139.0463  142.7475  163.2423 C.ar    1  UNL1        0.0862
     12 C         138.4028  144.0038  163.7496 C.ar    1  UNL1        0.1448
     13 F         137.4143  144.7387  162.8935 F       1  UNL1       -0.2040
     14 C         138.7478  144.5254  165.1130 C.ar    1  UNL1        0.0298
     15 C         139.7363  143.7906  165.9691 C.ar    1  UNL1        0.0023
     16 C         140.3798  142.5342  165.4618 C.ar    1  UNL1        0.0015
     17 C         140.0348  142.0127  164.0984 C.ar    1  UNL1        0.0226
     18 C         141.6668  140.0214  164.4472 C.3     1  UNL1        0.1569
     19 C         141.1841  139.1064  165.5333 C.2     1  UNL1        0.3231
     20 O         141.5915  139.3509  166.9562 O.2     1  UNL1       -0.2497
     21 O         140.2939  137.9470  165.1968 O.3     1  UNL1       -0.4482
     22 C         138.2061  139.2508  166.0281 C.3     1  UNL1        0.0513
     23 C         138.8036  138.0971  165.2786 C.3     1  UNL1        0.2086
     24 C         140.4247  137.8913  157.3278 C.3     1  UNL1        0.0865
     25 C         141.6539  138.2919  156.5672 C.3     1  UNL1        0.0269
     26 C         142.9950  138.2591  157.2381 C.3     1  UNL1        0.0727
     27 N         143.2483  139.1061  158.4500 N.3     1  UNL1       -0.2698
     28 C         143.2094  138.4901  159.8171 C.3     1  UNL1        0.0938
     29 C         143.4628  139.3371  161.0289 C.3     1  UNL1        0.1081
     30 N         143.7550  140.8001  160.8735 N.pl3   1  UNL1       -0.3049
     31 C         143.7939  141.4161  159.5064 C.3     1  UNL1        0.1081
     32 C         143.5406  140.5691  158.2946 C.3     1  UNL1        0.0938
     33 C         144.0084  141.6471  162.0853 C.ar    1  UNL1        0.0436
     34 C         145.0543  141.2392  163.0801 C.ar    1  UNL1        0.0142
     35 C         145.3077  142.0863  164.2919 C.ar    1  UNL1        0.0009
     36 C         144.5151  143.3412  164.5088 C.ar    1  UNL1       -0.0045
     37 C         143.4691  143.7490  163.5140 C.ar    1  UNL1       -0.0246
     38 C         142.6766  145.0039  163.7309 C.3     1  UNL1        0.0307
     39 C         143.2158  142.9020  162.3022 C.ar    1  UNL1       -0.0125
     40 C         142.1699  143.3099  161.3074 C.3     1  UNL1        0.0320
@<TRIPOS>BOND
     1    22    23    1
     2    23    21    1
     3    21    19    1
     4    19    20    2
     5    19    18    1
     6    18     6    1
     7     6     7   ar
     8     7     8   ar
     9     8     5    1
    10     5     1    1
    11     1     2   am
    12     2     3    2
    13     2    24    1
    14    24    25    1
    15    25    26    1
    16    26    27    1
    17    27    28    1
    18    28    29    1
    19    29    30    1
    20    30    33    1
    21    33    34   ar
    22    34    35   ar
    23    35    36   ar
    24    36    37   ar
    25    37    38    1
    26    37    39   ar
    27    39    40    1
    28    30    31    1
    29    31    32    1
    30     8     9   ar
    31     9    10    2
    32     9    11   ar
    33    11    12   ar
    34    12    13    1
    35    12    14   ar
    36    14    15   ar
    37    15    16   ar
    38    16    17   ar
    39    17     6   ar
    40    32    27    1
    41    17    11   ar
    42    39    33   ar
    43     1     4    1
@<TRIPOS>MOLECULE
*****
 40 43 0 0 0
SMALL
GASTEIGER

@<TRIPOS>ATOM
      1 N         138.3513  141.9947  158.5842 N.am    1  UNL1       -0.2839
      2 C         138.3598  142.0645  157.0859 C.2     1  UNL1        0.2239
      3 O         138.2536  140.8065  156.2758 O.2     1  UNL1       -0.2751
      4 H         138.4210  142.8203  159.1159 H       1  UNL1        0.1512
      5 C         138.2365  140.6669  159.2724 C.3     1  UNL1        0.2237
      6 C         137.7272  141.6922  163.0723 C.ar    1  UNL1        0.0901
      7 N         137.7336  141.7623  161.5740 N.ar    1  UNL1       -0.1691
      8 N         138.2302  140.5968  160.7708 N.ar    1  UNL1       -0.1959
      9 C         138.7204  139.3613  161.4660 C.ar    1  UNL1        0.2801
     10 O         139.2170  138.1959  160.6628 O.2     1  UNL1       -0.2654
     11 C         138.7140  139.2913  162.9644 C.ar    1  UNL1        0.0862
     12 C         139.2042  138.0558  163.6595 C.ar    1  UNL1        0.1448
     13 F         139.7008  136.8904  162.8563 F       1  UNL1       -0.2040
     14 C         139.1978  137.9858  165.1578 C.ar    1  UNL1        0.0298
     15 C         138.7012  139.1513  165.9610 C.ar    1  UNL1        0.0023
     16 C         138.2110  140.3867  165.2659 C.ar    1  UNL1        0.0015
     17 C         138.2174  140.4567  163.7676 C.ar    1  UNL1        0.0226
     18 C         137.2306  142.8577  163.8755 C.3     1  UNL1        0.1569
     19 C         137.8915  144.1974  163.7409 C.2     1  UNL1        0.3231
     20 O         137.6613  145.0273  162.5127 O.2     1  UNL1       -0.2497
     21 O         138.7827  144.7074  164.8344 O.3     1  UNL1       -0.4482
     22 C         140.1989  143.1427  166.3498 C.3     1  UNL1        0.0513
     23 C         140.0775  144.0110  165.1327 C.3     1  UNL1        0.2086
     24 C         138.4746  143.3923  156.3975 C.3     1  UNL1        0.0865
     25 C         139.8181  144.0392  156.2349 C.3     1  UNL1        0.0269
     26 C         140.3555  144.9330  157.3129 C.3     1  UNL1        0.0727
     27 N         140.8241  144.3446  158.6108 N.3     1  UNL1       -0.2698
     28 C         140.1882  144.7711  159.9006 C.3     1  UNL1        0.0938
     29 C         140.6568  144.1827  161.1984 C.3     1  UNL1        0.1081
     30 N         141.7613  143.1678  161.2063 N.pl3   1  UNL1       -0.3049
     31 C         142.3972  142.7413  159.9164 C.3     1  UNL1        0.1081
     32 C         141.9286  143.3297  158.6187 C.3     1  UNL1        0.0938
     33 C         142.2299  142.5794  162.5041 C.ar    1  UNL1        0.0436
     34 C         141.7266  141.2365  162.9438 C.ar    1  UNL1        0.0142
     35 C         142.1952  140.6480  164.2416 C.ar    1  UNL1        0.0009
     36 C         143.1670  141.4025  165.0996 C.ar    1  UNL1       -0.0045
     37 C         143.6703  142.7455  164.6599 C.ar    1  UNL1       -0.0246
     38 C         144.6421  143.5000  165.5180 C.3     1  UNL1        0.0307
     39 C         143.2017  143.3339  163.3621 C.ar    1  UNL1       -0.0125
     40 C         143.7050  144.6768  162.9225 C.3     1  UNL1        0.0320
@<TRIPOS>BOND
     1    22    23    1
     2    23    21    1
     3    21    19    1
     4    19    20    2
     5    19    18    1
     6    18     6    1
     7     6     7   ar
     8     7     8   ar
     9     8     5    1
    10     5     1    1
    11     1     2   am
    12     2     3    2
    13     2    24    1
    14    24    25    1
    15    25    26    1
    16    26    27    1
    17    27    28    1
    18    28    29    1
    19    29    30    1
    20    30    33    1
    21    33    34   ar
    22    34    35   ar
    23    35    36   ar
    24    36    37   ar
    25    37    38    1
    26    37    39   ar
    27    39    40    1
    28    30    31    1
    29    31    32    1
    30     8     9   ar
    31     9    10    2
    32     9    11   ar
    33    11    12   ar
    34    12    13    1
    35    12    14   ar
    36    14    15   ar
    37    15    16   ar
    38    16    17   ar
    39    17     6   ar
    40    32    27    1
    41    17    11   ar
    42    39    33   ar
    43     1     4    1
