@<TRIPOS>MOLECULE
*****
 18 19 0 0 0
SMALL
GASTEIGER

@<TRIPOS>ATOM
      1 C         140.5239  140.4486  167.1980 C.ar    1  UNL1        0.0468
      2 C         141.8415  139.8360  166.8260 C.ar    1  UNL1        0.0160
      3 C         142.7064  139.2174  167.8839 C.ar    1  UNL1        0.0209
      4 C         142.2537  139.2115  169.3139 C.ar    1  UNL1        0.0876
      5 C         140.9361  139.8242  169.6860 C.ar    1  UNL1       -0.0701
      6 O         140.4833  139.8183  171.1161 O.co2   1  UNL1       -0.8718
      7 C         140.0712  140.4427  168.6280 C.ar    1  UNL1       -0.0006
      8 C         138.6260  140.2379  165.4362 C.3     1  UNL1        0.1122
      9 N         139.6589  141.0672  166.1400 N.pl3   1  UNL1       -0.3041
     10 C         139.8269  142.5150  165.7859 C.3     1  UNL1        0.1122
     11 N         143.1187  138.5930  170.3719 N.2     1  UNL1       -0.1478
     12 N         143.6977  137.2252  170.1622 N.2     1  UNL1       -0.1285
     13 C         144.5626  136.6067  171.2202 C.ar    1  UNL1        0.1838
     14 C         144.4616  135.1378  171.5073 C.ar    1  UNL1        0.0406
     15 C         145.3265  134.5193  172.5653 C.ar    1  UNL1        0.0048
     16 C         146.2925  135.3696  173.3361 C.ar    1  UNL1        0.0208
     17 C         146.3934  136.8383  173.0489 C.ar    1  UNL1        0.1006
     18 N         145.5285  137.4569  171.9910 N.ar    1  UNL1       -0.2236
@<TRIPOS>UNITY_ATOM_ATTR
6 1
charge -1
@<TRIPOS>BOND
     1     8     9    1
     2     9    10    1
     3     9     1    1
     4     1     2   ar
     5     2     3   ar
     6     3     4   ar
     7     4    11    1
     8    11    12    2
     9    12    13    1
    10    13    14   ar
    11    14    15   ar
    12    15    16   ar
    13    16    17   ar
    14    17    18   ar
    15     4     5   ar
    16     5     6    1
    17     5     7   ar
    18     7     1   ar
    19    18    13   ar
@<TRIPOS>MOLECULE
*****
 18 19 0 0 0
SMALL
GASTEIGER

@<TRIPOS>ATOM
      1 C         140.3999  141.9300  167.3226 C.ar    1  UNL1        0.0468
      2 C         140.5465  142.3796  168.7460 C.ar    1  UNL1        0.0160
      3 C         139.9039  141.5942  169.8506 C.ar    1  UNL1        0.0209
      4 C         139.1146  140.3592  169.5318 C.ar    1  UNL1        0.0876
      5 C         138.9679  139.9095  168.1084 C.ar    1  UNL1       -0.0701
      6 O         138.1786  138.6745  167.7895 O.co2   1  UNL1       -0.8718
      7 C         139.6106  140.6949  167.0037 C.ar    1  UNL1       -0.0006
      8 C         142.5164  142.5914  165.9688 C.3     1  UNL1        0.1122
      9 N         141.0425  142.7153  166.2179 N.pl3   1  UNL1       -0.3041
     10 C         140.2111  143.6246  165.3624 C.3     1  UNL1        0.1122
     11 N         138.4720  139.5738  170.6365 N.2     1  UNL1       -0.1478
     12 N         137.1155  138.9666  170.4340 N.2     1  UNL1       -0.1285
     13 C         136.4729  138.1812  171.5387 C.ar    1  UNL1        0.1838
     14 C         135.2176  138.6865  172.1861 C.ar    1  UNL1        0.0406
     15 C         134.5750  137.9011  173.2908 C.ar    1  UNL1        0.0048
     16 C         135.1876  136.6104  173.7479 C.ar    1  UNL1        0.0208
     17 C         136.4428  136.1052  173.1004 C.ar    1  UNL1        0.1006
     18 N         137.0854  136.8906  171.9958 N.ar    1  UNL1       -0.2236
@<TRIPOS>UNITY_ATOM_ATTR
6 1
charge -1
@<TRIPOS>BOND
     1     8     9    1
     2     9    10    1
     3     9     1    1
     4     1     2   ar
     5     2     3   ar
     6     3     4   ar
     7     4    11    1
     8    11    12    2
     9    12    13    1
    10    13    14   ar
    11    14    15   ar
    12    15    16   ar
    13    16    17   ar
    14    17    18   ar
    15     4     5   ar
    16     5     6    1
    17     5     7   ar
    18     7     1   ar
    19    18    13   ar
@<TRIPOS>MOLECULE
*****
 18 19 0 0 0
SMALL
GASTEIGER

@<TRIPOS>ATOM
      1 C         140.7987  141.9286  167.3199 C.ar    1  UNL1        0.0468
      2 C         140.4764  140.4758  167.1318 C.ar    1  UNL1        0.0160
      3 C         139.7952  139.7107  168.2275 C.ar    1  UNL1        0.0209
      4 C         139.4361  140.3984  169.5112 C.ar    1  UNL1        0.0876
      5 C         139.7583  141.8512  169.6993 C.ar    1  UNL1       -0.0701
      6 O         139.3993  142.5390  170.9831 O.co2   1  UNL1       -0.8718
      7 C         140.4396  142.6163  168.6037 C.ar    1  UNL1       -0.0006
      8 C         142.9697  142.6148  166.0687 C.3     1  UNL1        0.1122
      9 N         141.4799  142.6937  166.2242 N.pl3   1  UNL1       -0.3041
     10 C         140.6714  143.5377  165.2841 C.3     1  UNL1        0.1122
     11 N         138.7549  139.6333  170.6069 N.2     1  UNL1       -0.1478
     12 N         137.3295  139.1961  170.4421 N.2     1  UNL1       -0.1285
     13 C         136.6482  138.4310  171.5378 C.ar    1  UNL1        0.1838
     14 C         137.3913  137.3582  172.2775 C.ar    1  UNL1        0.0406
     15 C         136.7100  136.5931  173.3731 C.ar    1  UNL1        0.0048
     16 C         135.2857  136.9008  173.7291 C.ar    1  UNL1        0.0208
     17 C         134.5427  137.9736  172.9895 C.ar    1  UNL1        0.1006
     18 N         135.2240  138.7387  171.8938 N.ar    1  UNL1       -0.2236
@<TRIPOS>UNITY_ATOM_ATTR
6 1
charge -1
@<TRIPOS>BOND
     1     8     9    1
     2     9    10    1
     3     9     1    1
     4     1     2   ar
     5     2     3   ar
     6     3     4   ar
     7     4    11    1
     8    11    12    2
     9    12    13    1
    10    13    14   ar
    11    14    15   ar
    12    15    16   ar
    13    16    17   ar
    14    17    18   ar
    15     4     5   ar
    16     5     6    1
    17     5     7   ar
    18     7     1   ar
    19    18    13   ar
@<TRIPOS>MOLECULE
*****
 18 19 0 0 0
SMALL
GASTEIGER

@<TRIPOS>ATOM
      1 C         141.5682  140.6278  167.8390 C.ar    1  UNL1        0.0468
      2 C         142.6231  141.5209  167.2563 C.ar    1  UNL1        0.0160
      3 C         143.3770  142.4680  168.1421 C.ar    1  UNL1        0.0209
      4 C         143.0761  142.5220  169.6106 C.ar    1  UNL1        0.0876
      5 C         142.0211  141.6290  170.1933 C.ar    1  UNL1       -0.0701
      6 O         141.7201  141.6830  171.6618 O.co2   1  UNL1       -0.8718
      7 C         141.2672  140.6819  169.3075 C.ar    1  UNL1       -0.0006
      8 C         141.5431  138.8922  165.9060 C.3     1  UNL1        0.1122
      9 N         140.8142  139.6808  166.9532 N.pl3   1  UNL1       -0.3041
     10 C         139.3314  139.5223  167.1147 C.3     1  UNL1        0.1122
     11 N         143.8300  143.4691  170.4964 N.2     1  UNL1       -0.1478
     12 N         145.3097  143.6420  170.3220 N.2     1  UNL1       -0.1285
     13 C         146.0637  144.5891  171.2078 C.ar    1  UNL1        0.1838
     14 C         147.3915  144.1866  171.7781 C.ar    1  UNL1        0.0406
     15 C         148.1454  145.1337  172.6638 C.ar    1  UNL1        0.0048
     16 C         147.5716  146.4832  172.9794 C.ar    1  UNL1        0.0208
     17 C         146.2439  146.8857  172.4091 C.ar    1  UNL1        0.1006
     18 N         145.4900  145.9386  171.5233 N.ar    1  UNL1       -0.2236
@<TRIPOS>UNITY_ATOM_ATTR
6 1
charge -1
@<TRIPOS>BOND
     1     8     9    1
     2     9    10    1
     3     9     1    1
     4     1     2   ar
     5     2     3   ar
     6     3     4   ar
     7     4    11    1
     8    11    12    2
     9    12    13    1
    10    13    14   ar
    11    14    15   ar
    12    15    16   ar
    13    16    17   ar
    14    17    18   ar
    15     4     5   ar
    16     5     6    1
    17     5     7   ar
    18     7     1   ar
    19    18    13   ar
@<TRIPOS>MOLECULE
*****
 18 19 0 0 0
SMALL
GASTEIGER

@<TRIPOS>ATOM
      1 C         141.2780  138.3393  160.8330 C.ar    1  UNL1        0.0468
      2 C         142.4845  138.1868  161.7111 C.ar    1  UNL1        0.0160
      3 C         142.3396  138.2520  163.2027 C.ar    1  UNL1        0.0209
      4 C         140.9882  138.4697  163.8161 C.ar    1  UNL1        0.0876
      5 C         139.7817  138.6222  162.9380 C.ar    1  UNL1       -0.0701
      6 O         138.4303  138.8399  163.5515 O.co2   1  UNL1       -0.8718
      7 C         139.9266  138.5570  161.4464 C.ar    1  UNL1       -0.0006
      8 C         140.2648  138.6347  158.4589 C.3     1  UNL1        0.1122
      9 N         141.4229  138.2740  159.3414 N.pl3   1  UNL1       -0.3041
     10 C         142.7258  137.8482  158.7324 C.3     1  UNL1        0.1122
     11 N         140.8433  138.5349  165.3077 N.2     1  UNL1       -0.1478
     12 N         141.0522  139.8354  166.0253 N.2     1  UNL1       -0.1285
     13 C         140.9073  139.9006  167.5169 C.ar    1  UNL1        0.1838
     14 C         139.5822  140.2496  168.1272 C.ar    1  UNL1        0.0406
     15 C         139.4373  140.3148  169.6187 C.ar    1  UNL1        0.0048
     16 C         140.6175  140.0310  170.5000 C.ar    1  UNL1        0.0208
     17 C         141.9425  139.6820  169.8898 C.ar    1  UNL1        0.1006
     18 N         142.0874  139.6168  168.3982 N.ar    1  UNL1       -0.2236
@<TRIPOS>UNITY_ATOM_ATTR
6 1
charge -1
@<TRIPOS>BOND
     1     8     9    1
     2     9    10    1
     3     9     1    1
     4     1     2   ar
     5     2     3   ar
     6     3     4   ar
     7     4    11    1
     8    11    12    2
     9    12    13    1
    10    13    14   ar
    11    14    15   ar
    12    15    16   ar
    13    16    17   ar
    14    17    18   ar
    15     4     5   ar
    16     5     6    1
    17     5     7   ar
    18     7     1   ar
    19    18    13   ar
@<TRIPOS>MOLECULE
*****
 18 19 0 0 0
SMALL
GASTEIGER

@<TRIPOS>ATOM
      1 C         138.4749  139.2736  164.3111 C.ar    1  UNL1        0.0468
      2 C         138.4833  138.1108  163.3636 C.ar    1  UNL1        0.0160
      3 C         138.1138  138.3137  161.9240 C.ar    1  UNL1        0.0209
      4 C         137.7360  139.6794  161.4320 C.ar    1  UNL1        0.0876
      5 C         137.7276  140.8422  162.3795 C.ar    1  UNL1       -0.0701
      6 O         137.3498  142.2079  161.8875 O.co2   1  UNL1       -0.8718
      7 C         138.0971  140.6392  163.8191 C.ar    1  UNL1       -0.0006
      8 C         137.8661  138.4354  166.6937 C.3     1  UNL1        0.1122
      9 N         138.8444  139.0707  165.7507 N.pl3   1  UNL1       -0.3041
     10 C         140.1921  139.5031  166.2472 C.3     1  UNL1        0.1122
     11 N         137.3665  139.8823  159.9924 N.2     1  UNL1       -0.1478
     12 N         138.3630  140.4705  159.0381 N.2     1  UNL1       -0.1285
     13 C         137.9936  140.6735  157.5985 C.ar    1  UNL1        0.1838
     14 C         137.3503  141.9567  157.1630 C.ar    1  UNL1        0.0406
     15 C         136.9808  142.1596  155.7235 C.ar    1  UNL1        0.0048
     16 C         137.2546  141.0793  154.7194 C.ar    1  UNL1        0.0208
     17 C         137.8979  139.7961  155.1550 C.ar    1  UNL1        0.1006
     18 N         138.2674  139.5932  156.5945 N.ar    1  UNL1       -0.2236
@<TRIPOS>UNITY_ATOM_ATTR
6 1
charge -1
@<TRIPOS>BOND
     1     8     9    1
     2     9    10    1
     3     9     1    1
     4     1     2   ar
     5     2     3   ar
     6     3     4   ar
     7     4    11    1
     8    11    12    2
     9    12    13    1
    10    13    14   ar
    11    14    15   ar
    12    15    16   ar
    13    16    17   ar
    14    17    18   ar
    15     4     5   ar
    16     5     6    1
    17     5     7   ar
    18     7     1   ar
    19    18    13   ar
@<TRIPOS>MOLECULE
*****
 18 19 0 0 0
SMALL
GASTEIGER

@<TRIPOS>ATOM
      1 C         143.6538  142.9761  160.5871 C.ar    1  UNL1        0.0468
      2 C         142.4563  143.4238  161.3716 C.ar    1  UNL1        0.0160
      3 C         142.4348  143.2657  162.8631 C.ar    1  UNL1        0.0209
      4 C         143.6108  142.6598  163.5701 C.ar    1  UNL1        0.0876
      5 C         144.8083  142.2120  162.7855 C.ar    1  UNL1       -0.0701
      6 O         145.9844  141.6061  163.4925 O.co2   1  UNL1       -0.8718
      7 C         144.8298  142.3702  161.2941 C.ar    1  UNL1       -0.0006
      8 C         144.7801  142.5155  158.2916 C.3     1  UNL1        0.1122
      9 N         143.6752  143.1342  159.0956 N.pl3   1  UNL1       -0.3041
     10 C         142.5919  143.9111  158.4081 C.3     1  UNL1        0.1122
     11 N         143.5893  142.5016  165.0615 N.2     1  UNL1       -0.1478
     12 N         142.9216  141.3092  165.6798 N.2     1  UNL1       -0.1285
     13 C         142.9002  141.1510  167.1713 C.ar    1  UNL1        0.1838
     14 C         143.2799  142.3035  168.0532 C.ar    1  UNL1        0.0406
     15 C         143.2584  142.1453  169.5447 C.ar    1  UNL1        0.0048
     16 C         142.8572  140.8347  170.1542 C.ar    1  UNL1        0.0208
     17 C         142.4775  139.6824  169.2723 C.ar    1  UNL1        0.1006
     18 N         142.4990  139.8405  167.7808 N.ar    1  UNL1       -0.2236
@<TRIPOS>UNITY_ATOM_ATTR
6 1
charge -1
@<TRIPOS>BOND
     1     8     9    1
     2     9    10    1
     3     9     1    1
     4     1     2   ar
     5     2     3   ar
     6     3     4   ar
     7     4    11    1
     8    11    12    2
     9    12    13    1
    10    13    14   ar
    11    14    15   ar
    12    15    16   ar
    13    16    17   ar
    14    17    18   ar
    15     4     5   ar
    16     5     6    1
    17     5     7   ar
    18     7     1   ar
    19    18    13   ar
@<TRIPOS>MOLECULE
*****
 18 19 0 0 0
SMALL
GASTEIGER

@<TRIPOS>ATOM
      1 C         140.9359  138.8077  161.1227 C.ar    1  UNL1        0.0468
      2 C         140.5787  140.1990  161.5548 C.ar    1  UNL1        0.0160
      3 C         140.4146  140.5127  163.0124 C.ar    1  UNL1        0.0209
      4 C         140.6076  139.4352  164.0379 C.ar    1  UNL1        0.0876
      5 C         140.9648  138.0439  163.6057 C.ar    1  UNL1       -0.0701
      6 O         141.1579  136.9663  164.6312 O.co2   1  UNL1       -0.8718
      7 C         141.1289  137.7302  162.1481 C.ar    1  UNL1       -0.0006
      8 C         142.4536  138.1459  159.1206 C.3     1  UNL1        0.1122
      9 N         141.1000  138.4940  159.6650 N.pl3   1  UNL1       -0.3041
     10 C         139.9105  138.5284  158.7519 C.3     1  UNL1        0.1122
     11 N         140.4435  139.7489  165.4955 N.2     1  UNL1       -0.1478
     12 N         140.3382  141.1749  165.9485 N.2     1  UNL1       -0.1285
     13 C         140.1740  141.4886  167.4062 C.ar    1  UNL1        0.1838
     14 C         140.5852  142.8306  167.9354 C.ar    1  UNL1        0.0406
     15 C         140.4211  143.1443  169.3931 C.ar    1  UNL1        0.0048
     16 C         139.8458  142.1160  170.3214 C.ar    1  UNL1        0.0208
     17 C         139.4346  140.7741  169.7921 C.ar    1  UNL1        0.1006
     18 N         139.5988  140.4604  168.3345 N.ar    1  UNL1       -0.2236
@<TRIPOS>UNITY_ATOM_ATTR
6 1
charge -1
@<TRIPOS>BOND
     1     8     9    1
     2     9    10    1
     3     9     1    1
     4     1     2   ar
     5     2     3   ar
     6     3     4   ar
     7     4    11    1
     8    11    12    2
     9    12    13    1
    10    13    14   ar
    11    14    15   ar
    12    15    16   ar
    13    16    17   ar
    14    17    18   ar
    15     4     5   ar
    16     5     6    1
    17     5     7   ar
    18     7     1   ar
    19    18    13   ar
@<TRIPOS>MOLECULE
*****
 18 19 0 0 0
SMALL
GASTEIGER

@<TRIPOS>ATOM
      1 C         140.1855  143.8674  161.7399 C.ar    1  UNL1        0.0468
      2 C         141.2393  142.8886  162.1658 C.ar    1  UNL1        0.0160
      3 C         141.4555  142.6060  163.6230 C.ar    1  UNL1        0.0209
      4 C         140.6178  143.3023  164.6543 C.ar    1  UNL1        0.0876
      5 C         139.5640  144.2811  164.2284 C.ar    1  UNL1       -0.0701
      6 O         138.7264  144.9773  165.2597 O.co2   1  UNL1       -0.8718
      7 C         139.3479  144.5636  162.7712 C.ar    1  UNL1       -0.0006
      8 C         139.3056  143.1259  159.4106 C.3     1  UNL1        0.1122
      9 N         139.9693  144.1500  160.2827 N.pl3   1  UNL1       -0.3041
     10 C         140.4169  145.4566  159.6977 C.3     1  UNL1        0.1122
     11 N         140.8340  143.0197  166.1115 N.2     1  UNL1       -0.1478
     12 N         140.1087  141.8844  166.7710 N.2     1  UNL1       -0.1285
     13 C         140.3249  141.6018  168.2282 C.ar    1  UNL1        0.1838
     14 C         139.6239  140.4470  168.8803 C.ar    1  UNL1        0.0406
     15 C         139.8400  140.1644  170.3375 C.ar    1  UNL1        0.0048
     16 C         140.7572  141.0366  171.1426 C.ar    1  UNL1        0.0208
     17 C         141.4582  142.1913  170.4905 C.ar    1  UNL1        0.1006
     18 N         141.2420  142.4739  169.0333 N.ar    1  UNL1       -0.2236
@<TRIPOS>UNITY_ATOM_ATTR
6 1
charge -1
@<TRIPOS>BOND
     1     8     9    1
     2     9    10    1
     3     9     1    1
     4     1     2   ar
     5     2     3   ar
     6     3     4   ar
     7     4    11    1
     8    11    12    2
     9    12    13    1
    10    13    14   ar
    11    14    15   ar
    12    15    16   ar
    13    16    17   ar
    14    17    18   ar
    15     4     5   ar
    16     5     6    1
    17     5     7   ar
    18     7     1   ar
    19    18    13   ar
