@<TRIPOS>MOLECULE
*****
 39 42 0 0 0
SMALL
GASTEIGER

@<TRIPOS>ATOM
      1 N         138.8841  140.0958  165.8489 N.3     1  UNL1       -0.2691
      2 C         138.0973  140.8938  164.8519 C.3     1  UNL1        0.0724
      3 C         138.5652  142.2606  164.4483 C.3     1  UNL1        0.0188
      4 C         139.8200  142.8294  165.0417 C.3     1  UNL1        0.0188
      5 C         140.6068  142.0313  166.0388 C.3     1  UNL1        0.0188
      6 C         140.1388  140.6645  166.4424 C.3     1  UNL1        0.0724
      7 C         138.4161  138.7289  166.2525 C.3     1  UNL1        0.0987
      8 C         137.7018  138.5357  167.5573 C.2     1  UNL1        0.0652
      9 O         136.5364  137.5953  167.6423 O.co2   1  UNL1       -0.5478
     10 O         138.1530  139.2830  168.7772 O.co2   1  UNL1       -0.5478
     11 C         138.6623  137.5554  165.3514 C.3     1  UNL1        0.0480
     12 C         141.2882  138.0146  161.7259 C.ar    1  UNL1        0.1057
     13 C         141.9038  137.7702  163.0717 C.ar    1  UNL1        0.0180
     14 C         141.0285  137.6172  164.2802 C.ar    1  UNL1       -0.0029
     15 C         139.5376  137.7085  164.1429 C.ar    1  UNL1       -0.0204
     16 C         138.9220  137.9528  162.7971 C.ar    1  UNL1       -0.0029
     17 C         139.7973  138.1059  161.5886 C.ar    1  UNL1        0.0180
     18 C         143.0388  138.3207  159.3089 C.3     1  UNL1        0.1816
     19 S         142.1635  138.1676  160.5174 S.O2    1  UNL1        0.0104
     20 O         143.3764  137.9201  161.3646 O.2     1  UNL1       -0.1686
     21 O         140.9506  138.4152  159.6703 O.2     1  UNL1       -0.1686
     22 C         140.2879  144.1961  164.6381 C.3     1  UNL1        0.0721
     23 N         140.6196  144.4820  163.2034 N.3     1  UNL1       -0.2724
     24 C         141.7642  143.7728  162.5426 C.3     1  UNL1        0.0758
     25 C         142.0959  144.0587  161.1079 C.3     1  UNL1        0.0609
     26 C         141.2829  145.0538  160.3341 C.3     1  UNL1        0.1687
     27 C         140.1383  145.7631  160.9950 C.3     1  UNL1        0.0609
     28 C         139.8067  145.4772  162.4297 C.3     1  UNL1        0.0758
     29 O         141.6146  145.3397  158.8995 O.3     1  UNL1       -0.4790
     30 C         140.5733  145.1496  157.8367 C.ar    1  UNL1        0.1392
     31 C         139.9188  143.8116  157.6588 C.ar    1  UNL1        0.0367
     32 C         138.8775  143.6214  156.5960 C.ar    1  UNL1        0.0021
     33 C         138.4907  144.7692  155.7111 C.ar    1  UNL1        0.0177
     34 C         139.1451  146.1071  155.8890 C.ar    1  UNL1        0.0590
     35 CL        138.7583  147.2548  155.0041 Cl      1  UNL1       -0.0824
     36 C         140.1865  146.2973  156.9518 C.ar    1  UNL1        0.0480
     37 C         137.4494  144.5789  154.6483 C.3     1  UNL1        0.1644
     38 O         137.8637  144.3260  153.2290 O.3     1  UNL1       -0.3772
     39 H         138.3121  145.1114  152.8782 H       1  UNL1        0.2109
@<TRIPOS>UNITY_ATOM_ATTR
9 1
charge -1
@<TRIPOS>BOND
     1    18    19    1
     2    19    20    2
     3    19    21    2
     4    19    12    1
     5    12    13   ar
     6    13    14   ar
     7    14    15   ar
     8    15    11    1
     9    11     7    1
    10     7     8    1
    11     8     9   ar
    12     8    10   ar
    13     7     1    1
    14     1     2    1
    15     2     3    1
    16     3     4    1
    17     4    22    1
    18    22    23    1
    19    23    24    1
    20    24    25    1
    21    25    26    1
    22    26    29    1
    23    29    30    1
    24    30    31   ar
    25    31    32   ar
    26    32    33   ar
    27    33    37    1
    28    37    38    1
    29    33    34   ar
    30    34    35    1
    31    34    36   ar
    32    26    27    1
    33    27    28    1
    34     4     5    1
    35     5     6    1
    36    15    16   ar
    37    16    17   ar
    38    17    12   ar
    39     6     1    1
    40    28    23    1
    41    36    30   ar
    42    38    39    1
@<TRIPOS>MOLECULE
*****
 39 42 0 0 0
SMALL
GASTEIGER

@<TRIPOS>ATOM
      1 N         140.2576  140.6758  167.7898 N.3     1  UNL1       -0.2691
      2 C         140.1457  142.1107  167.3673 C.3     1  UNL1        0.0724
      3 C         141.3132  142.7953  166.7205 C.3     1  UNL1        0.0188
      4 C         142.5926  142.0449  166.4962 C.3     1  UNL1        0.0188
      5 C         142.7044  140.6100  166.9187 C.3     1  UNL1        0.0188
      6 C         141.5368  139.9255  167.5655 C.3     1  UNL1        0.0724
      7 C         139.0900  139.9913  168.4366 C.3     1  UNL1        0.0987
      8 C         138.8543  140.1423  169.9103 C.2     1  UNL1        0.0652
      9 O         139.8522  140.8738  170.7583 O.co2   1  UNL1       -0.5478
     10 O         137.6207  139.5618  170.5359 O.co2   1  UNL1       -0.5478
     11 C         138.1582  139.1558  167.6098 C.3     1  UNL1        0.0480
     12 C         138.8775  138.6854  163.1926 C.ar    1  UNL1        0.1057
     13 C         139.1589  137.5439  164.1241 C.ar    1  UNL1        0.0180
     14 C         138.9191  137.7007  165.5965 C.ar    1  UNL1       -0.0029
     15 C         138.3980  138.9990  166.1374 C.ar    1  UNL1       -0.0204
     16 C         138.1166  140.1406  165.2060 C.ar    1  UNL1       -0.0029
     17 C         138.3563  139.9838  163.7336 C.ar    1  UNL1        0.0180
     18 C         139.3570  138.3718  160.2478 C.3     1  UNL1        0.1816
     19 S         139.1172  138.5286  161.7202 S.O2    1  UNL1        0.0104
     20 O         140.2082  137.5388  162.0033 O.2     1  UNL1       -0.1686
     21 O         138.0263  139.5184  161.4372 O.2     1  UNL1       -0.1686
     22 C         143.7600  142.7295  165.8494 C.3     1  UNL1        0.0721
     23 N         143.9421  142.6573  164.3622 N.3     1  UNL1       -0.2724
     24 C         142.9370  143.2980  163.4516 C.3     1  UNL1        0.0758
     25 C         143.1191  143.2258  161.9644 C.3     1  UNL1        0.0609
     26 C         144.3062  142.5128  161.3879 C.3     1  UNL1        0.1687
     27 C         145.3112  141.8721  162.2985 C.3     1  UNL1        0.0609
     28 C         145.1292  141.9443  163.7857 C.3     1  UNL1        0.0758
     29 O         144.4883  142.4406  159.9007 O.3     1  UNL1       -0.4790
     30 C         143.9592  141.2633  159.1367 C.ar    1  UNL1        0.1392
     31 C         143.6993  141.3802  157.6639 C.ar    1  UNL1        0.0367
     32 C         143.1702  140.2029  156.8998 C.ar    1  UNL1        0.0021
     33 C         142.9010  138.9085  157.6084 C.ar    1  UNL1        0.0177
     34 C         143.1608  138.7915  159.0811 C.ar    1  UNL1        0.0590
     35 CL        142.8915  137.4971  159.7896 Cl      1  UNL1       -0.0824
     36 C         143.6899  139.9689  159.8452 C.ar    1  UNL1        0.0480
     37 C         142.3719  137.7311  156.8443 C.3     1  UNL1        0.1644
     38 O         140.9186  137.3706  156.9337 O.3     1  UNL1       -0.3772
     39 H         140.7115  137.0842  157.8370 H       1  UNL1        0.2109
@<TRIPOS>UNITY_ATOM_ATTR
9 1
charge -1
@<TRIPOS>BOND
     1    18    19    1
     2    19    20    2
     3    19    21    2
     4    19    12    1
     5    12    13   ar
     6    13    14   ar
     7    14    15   ar
     8    15    11    1
     9    11     7    1
    10     7     8    1
    11     8     9   ar
    12     8    10   ar
    13     7     1    1
    14     1     2    1
    15     2     3    1
    16     3     4    1
    17     4    22    1
    18    22    23    1
    19    23    24    1
    20    24    25    1
    21    25    26    1
    22    26    29    1
    23    29    30    1
    24    30    31   ar
    25    31    32   ar
    26    32    33   ar
    27    33    37    1
    28    37    38    1
    29    33    34   ar
    30    34    35    1
    31    34    36   ar
    32    26    27    1
    33    27    28    1
    34     4     5    1
    35     5     6    1
    36    15    16   ar
    37    16    17   ar
    38    17    12   ar
    39     6     1    1
    40    28    23    1
    41    36    30   ar
    42    38    39    1
@<TRIPOS>MOLECULE
*****
 39 42 0 0 0
SMALL
GASTEIGER

@<TRIPOS>ATOM
      1 N         140.6016  139.6983  166.8943 N.3     1  UNL1       -0.2691
      2 C         141.4962  139.1336  165.8309 C.3     1  UNL1        0.0724
      3 C         140.9011  138.4553  164.6326 C.3     1  UNL1        0.0188
      4 C         139.4115  138.3416  164.4978 C.3     1  UNL1        0.0188
      5 C         138.5169  138.9064  165.5613 C.3     1  UNL1        0.0188
      6 C         139.1121  139.5847  166.7595 C.3     1  UNL1        0.0724
      7 C         141.1967  140.3767  168.0926 C.3     1  UNL1        0.0987
      8 C         141.4511  139.5953  169.3474 C.2     1  UNL1        0.0652
      9 O         140.3731  139.4669  170.3825 O.co2   1  UNL1       -0.5478
     10 O         142.7836  138.9424  169.5673 O.co2   1  UNL1       -0.5478
     11 C         141.5374  141.8364  168.0359 C.3     1  UNL1        0.0480
     12 C         140.7742  144.1805  164.2713 C.ar    1  UNL1        0.1057
     13 C         139.6852  144.0234  165.2907 C.ar    1  UNL1        0.0180
     14 C         139.9396  143.2420  166.5456 C.ar    1  UNL1       -0.0029
     15 C         141.2830  142.6178  166.7810 C.ar    1  UNL1       -0.0204
     16 C         142.3720  142.7749  165.7616 C.ar    1  UNL1       -0.0029
     17 C         142.1176  143.5563  164.5067 C.ar    1  UNL1        0.0180
     18 C         140.2653  145.7433  161.7616 C.3     1  UNL1        0.1816
     19 S         140.5197  144.9619  163.0164 S.O2    1  UNL1        0.0104
     20 O         141.9504  144.7716  162.6078 O.2     1  UNL1       -0.1686
     21 O         139.0891  145.1523  163.4250 O.2     1  UNL1       -0.1686
     22 C         138.8165  137.6633  163.2996 C.3     1  UNL1        0.0721
     23 N         138.8201  138.3538  161.9680 N.3     1  UNL1       -0.2724
     24 C         139.9242  138.0877  160.9882 C.3     1  UNL1        0.0758
     25 C         139.9279  138.7782  159.6566 C.3     1  UNL1        0.0609
     26 C         138.8274  139.7348  159.3048 C.3     1  UNL1        0.1687
     27 C         137.7233  140.0009  160.2846 C.3     1  UNL1        0.0609
     28 C         137.7197  139.3104  161.6162 C.3     1  UNL1        0.0758
     29 O         138.8311  140.4253  157.9731 O.3     1  UNL1       -0.4790
     30 C         139.3776  141.8168  157.8514 C.ar    1  UNL1        0.1392
     31 C         140.3796  142.3190  158.8483 C.ar    1  UNL1        0.0367
     32 C         140.9261  143.7105  158.7266 C.ar    1  UNL1        0.0021
     33 C         140.4707  144.6000  157.6079 C.ar    1  UNL1        0.0177
     34 C         139.4688  144.0979  156.6109 C.ar    1  UNL1        0.0590
     35 CL        139.0133  144.9873  155.4922 Cl      1  UNL1       -0.0824
     36 C         138.9222  142.7062  156.7327 C.ar    1  UNL1        0.0480
     37 C         141.0173  145.9916  157.4861 C.3     1  UNL1        0.1644
     38 O         142.4857  146.2391  157.6666 O.3     1  UNL1       -0.3772
     39 H         142.7357  146.0461  158.5837 H       1  UNL1        0.2109
@<TRIPOS>UNITY_ATOM_ATTR
9 1
charge -1
@<TRIPOS>BOND
     1    18    19    1
     2    19    20    2
     3    19    21    2
     4    19    12    1
     5    12    13   ar
     6    13    14   ar
     7    14    15   ar
     8    15    11    1
     9    11     7    1
    10     7     8    1
    11     8     9   ar
    12     8    10   ar
    13     7     1    1
    14     1     2    1
    15     2     3    1
    16     3     4    1
    17     4    22    1
    18    22    23    1
    19    23    24    1
    20    24    25    1
    21    25    26    1
    22    26    29    1
    23    29    30    1
    24    30    31   ar
    25    31    32   ar
    26    32    33   ar
    27    33    37    1
    28    37    38    1
    29    33    34   ar
    30    34    35    1
    31    34    36   ar
    32    26    27    1
    33    27    28    1
    34     4     5    1
    35     5     6    1
    36    15    16   ar
    37    16    17   ar
    38    17    12   ar
    39     6     1    1
    40    28    23    1
    41    36    30   ar
    42    38    39    1
@<TRIPOS>MOLECULE
*****
 39 42 0 0 0
SMALL
GASTEIGER

@<TRIPOS>ATOM
      1 N         140.6299  140.7326  167.3863 N.3     1  UNL1       -0.2691
      2 C         140.5343  142.1643  166.9492 C.3     1  UNL1        0.0724
      3 C         141.6614  142.7916  166.1837 C.3     1  UNL1        0.0188
      4 C         142.8842  141.9872  165.8552 C.3     1  UNL1        0.0188
      5 C         142.9798  140.5555  166.2924 C.3     1  UNL1        0.0188
      6 C         141.8527  139.9282  167.0580 C.3     1  UNL1        0.0724
      7 C         139.5028  140.1052  168.1519 C.3     1  UNL1        0.0987
      8 C         139.4150  140.2840  169.6386 C.2     1  UNL1        0.0652
      9 O         138.1175  140.0343  170.3487 O.co2   1  UNL1       -0.5478
     10 O         140.6247  140.7126  170.4152 O.co2   1  UNL1       -0.5478
     11 C         138.4635  139.2992  167.4308 C.3     1  UNL1        0.0480
     12 C         138.6951  138.8102  162.9634 C.ar    1  UNL1        0.1057
     13 C         138.2119  140.1023  163.5524 C.ar    1  UNL1        0.0180
     14 C         138.1347  140.2653  165.0416 C.ar    1  UNL1       -0.0029
     15 C         138.5407  139.1362  165.9417 C.ar    1  UNL1       -0.0204
     16 C         139.0239  137.8441  165.3527 C.ar    1  UNL1       -0.0029
     17 C         139.1011  137.6811  163.8635 C.ar    1  UNL1        0.0180
     18 C         138.8495  138.4842  159.9852 C.3     1  UNL1        0.1816
     19 S         138.7723  138.6472  161.4743 S.O2    1  UNL1        0.0104
     20 O         137.6832  139.6649  161.3065 O.2     1  UNL1       -0.1686
     21 O         139.8614  137.6295  161.6422 O.2     1  UNL1       -0.1686
     22 C         144.0112  142.6146  165.0897 C.3     1  UNL1        0.0721
     23 N         143.8897  142.8190  163.6087 N.3     1  UNL1       -0.2724
     24 C         144.8697  142.1674  162.6787 C.3     1  UNL1        0.0758
     25 C         144.7481  142.3718  161.1976 C.3     1  UNL1        0.0609
     26 C         143.6465  143.2279  160.6466 C.3     1  UNL1        0.1687
     27 C         142.6665  143.8795  161.5766 C.3     1  UNL1        0.0609
     28 C         142.7881  143.6751  163.0577 C.3     1  UNL1        0.0758
     29 O         143.5249  143.4323  159.1656 O.3     1  UNL1       -0.4790
     30 C         143.9743  142.3575  158.2207 C.ar    1  UNL1        0.1392
     31 C         143.1494  141.1164  158.0494 C.ar    1  UNL1        0.0367
     32 C         143.5988  140.0417  157.1046 C.ar    1  UNL1        0.0021
     33 C         144.8731  140.2079  156.3310 C.ar    1  UNL1        0.0177
     34 C         145.6981  141.4489  156.5022 C.ar    1  UNL1        0.0590
     35 CL        146.9724  141.6151  155.7286 Cl      1  UNL1       -0.0824
     36 C         145.2487  142.5237  157.4471 C.ar    1  UNL1        0.0480
     37 C         145.3225  139.1330  155.3861 C.3     1  UNL1        0.1644
     38 O         144.8708  137.7174  155.5909 O.3     1  UNL1       -0.3772
     39 H         145.2461  137.3746  156.4170 H       1  UNL1        0.2109
@<TRIPOS>UNITY_ATOM_ATTR
9 1
charge -1
@<TRIPOS>BOND
     1    18    19    1
     2    19    20    2
     3    19    21    2
     4    19    12    1
     5    12    13   ar
     6    13    14   ar
     7    14    15   ar
     8    15    11    1
     9    11     7    1
    10     7     8    1
    11     8     9   ar
    12     8    10   ar
    13     7     1    1
    14     1     2    1
    15     2     3    1
    16     3     4    1
    17     4    22    1
    18    22    23    1
    19    23    24    1
    20    24    25    1
    21    25    26    1
    22    26    29    1
    23    29    30    1
    24    30    31   ar
    25    31    32   ar
    26    32    33   ar
    27    33    37    1
    28    37    38    1
    29    33    34   ar
    30    34    35    1
    31    34    36   ar
    32    26    27    1
    33    27    28    1
    34     4     5    1
    35     5     6    1
    36    15    16   ar
    37    16    17   ar
    38    17    12   ar
    39     6     1    1
    40    28    23    1
    41    36    30   ar
    42    38    39    1
@<TRIPOS>MOLECULE
*****
 39 42 0 0 0
SMALL
GASTEIGER

@<TRIPOS>ATOM
      1 N         141.8634  140.7282  166.9935 N.3     1  UNL1       -0.2691
      2 C         142.6691  141.9333  166.6081 C.3     1  UNL1        0.0724
      3 C         142.0174  143.0682  165.8750 C.3     1  UNL1        0.0188
      4 C         140.5599  142.9979  165.5274 C.3     1  UNL1        0.0188
      5 C         139.7541  141.7928  165.9128 C.3     1  UNL1        0.0188
      6 C         140.4059  140.6580  166.6459 C.3     1  UNL1        0.0724
      7 C         142.5152  139.5934  167.7266 C.3     1  UNL1        0.0987
      8 C         142.3970  139.4981  169.2189 C.2     1  UNL1        0.0652
      9 O         143.0189  138.3445  169.9484 O.co2   1  UNL1       -0.5478
     10 O         141.6567  140.5566  169.9817 O.co2   1  UNL1       -0.5478
     11 C         143.2852  138.5539  166.9674 C.3     1  UNL1        0.0480
     12 C         142.8536  138.2515  162.4983 C.ar    1  UNL1        0.1057
     13 C         141.7995  137.6722  163.3945 C.ar    1  UNL1        0.0180
     14 C         141.9433  137.7730  164.8842 C.ar    1  UNL1       -0.0029
     15 C         143.1413  138.4531  165.4777 C.ar    1  UNL1       -0.0204
     16 C         144.1955  139.0323  164.5815 C.ar    1  UNL1       -0.0029
     17 C         144.0516  138.9315  163.0918 C.ar    1  UNL1        0.0180
     18 C         142.5659  138.0498  159.5190 C.3     1  UNL1        0.1816
     19 S         142.7098  138.1506  161.0087 S.O2    1  UNL1        0.0104
     20 O         144.1198  138.6336  160.8398 O.2     1  UNL1       -0.1686
     21 O         141.2997  137.6677  161.1775 O.2     1  UNL1       -0.1686
     22 C         139.9081  144.1327  164.7943 C.3     1  UNL1        0.0721
     23 N         140.3181  144.4503  163.3868 N.3     1  UNL1       -0.2724
     24 C         139.6026  145.5236  162.6213 C.3     1  UNL1        0.0758
     25 C         140.0126  145.8413  161.2138 C.3     1  UNL1        0.0609
     26 C         141.1381  145.0856  160.5718 C.3     1  UNL1        0.1687
     27 C         141.8536  144.0123  161.3374 C.3     1  UNL1        0.0609
     28 C         141.4436  143.6947  162.7448 C.3     1  UNL1        0.0758
     29 O         141.5480  145.4032  159.1644 O.3     1  UNL1       -0.4790
     30 C         140.5836  145.1888  158.0357 C.ar    1  UNL1        0.1392
     31 C         139.9172  143.8562  157.8615 C.ar    1  UNL1        0.0367
     32 C         138.9528  143.6418  156.7329 C.ar    1  UNL1        0.0021
     33 C         138.6546  144.7599  155.7785 C.ar    1  UNL1        0.0177
     34 C         139.3209  146.0924  155.9527 C.ar    1  UNL1        0.0590
     35 CL        139.0227  147.2105  154.9982 Cl      1  UNL1       -0.0824
     36 C         140.2854  146.3069  157.0813 C.ar    1  UNL1        0.0480
     37 C         137.6901  144.5454  154.6498 C.3     1  UNL1        0.1644
     38 O         138.2020  144.3320  153.2561 O.3     1  UNL1       -0.3772
     39 H         138.6389  145.1402  152.9449 H       1  UNL1        0.2109
@<TRIPOS>UNITY_ATOM_ATTR
9 1
charge -1
@<TRIPOS>BOND
     1    18    19    1
     2    19    20    2
     3    19    21    2
     4    19    12    1
     5    12    13   ar
     6    13    14   ar
     7    14    15   ar
     8    15    11    1
     9    11     7    1
    10     7     8    1
    11     8     9   ar
    12     8    10   ar
    13     7     1    1
    14     1     2    1
    15     2     3    1
    16     3     4    1
    17     4    22    1
    18    22    23    1
    19    23    24    1
    20    24    25    1
    21    25    26    1
    22    26    29    1
    23    29    30    1
    24    30    31   ar
    25    31    32   ar
    26    32    33   ar
    27    33    37    1
    28    37    38    1
    29    33    34   ar
    30    34    35    1
    31    34    36   ar
    32    26    27    1
    33    27    28    1
    34     4     5    1
    35     5     6    1
    36    15    16   ar
    37    16    17   ar
    38    17    12   ar
    39     6     1    1
    40    28    23    1
    41    36    30   ar
    42    38    39    1
@<TRIPOS>MOLECULE
*****
 39 42 0 0 0
SMALL
GASTEIGER

@<TRIPOS>ATOM
      1 N         142.1177  140.1362  166.8721 N.3     1  UNL1       -0.2691
      2 C         142.7553  138.9536  166.2051 C.3     1  UNL1        0.0724
      3 C         143.7602  139.1611  165.1110 C.3     1  UNL1        0.0188
      4 C         144.1275  140.5513  164.6839 C.3     1  UNL1        0.0188
      5 C         143.4899  141.7339  165.3508 C.3     1  UNL1        0.0188
      6 C         142.4850  141.5264  166.4450 C.3     1  UNL1        0.0724
      7 C         141.1128  139.9286  167.9663 C.3     1  UNL1        0.0987
      8 C         141.5714  139.7697  169.3855 C.2     1  UNL1        0.0652
      9 O         140.5665  139.5627  170.4797 O.co2   1  UNL1       -0.5478
     10 O         143.0350  139.8178  169.7106 O.co2   1  UNL1       -0.5478
     11 C         139.6493  139.8799  167.6411 C.3     1  UNL1        0.0480
     12 C         138.2996  139.7952  163.3491 C.ar    1  UNL1        0.1057
     13 C         138.6689  138.5186  164.0445 C.ar    1  UNL1        0.0180
     14 C         139.1188  138.5468  165.4752 C.ar    1  UNL1       -0.0029
     15 C         139.1994  139.8517  166.2104 C.ar    1  UNL1       -0.0204
     16 C         138.8301  141.1284  165.5150 C.ar    1  UNL1       -0.0029
     17 C         138.3802  141.1002  164.0843 C.ar    1  UNL1        0.0180
     18 C         137.3998  139.7388  160.4878 C.3     1  UNL1        0.1816
     19 S         137.8497  139.7670  161.9184 S.O2    1  UNL1        0.0104
     20 O         138.3840  138.3724  161.7779 O.2     1  UNL1       -0.1686
     21 O         137.3154  141.1616  162.0589 O.2     1  UNL1       -0.1686
     22 C         145.1324  140.7588  163.5898 C.3     1  UNL1        0.0721
     23 N         144.6893  140.7703  162.1567 N.3     1  UNL1       -0.2724
     24 C         144.2395  139.4987  161.5006 C.3     1  UNL1        0.0758
     25 C         143.7964  139.5102  160.0676 C.3     1  UNL1        0.0609
     26 C         143.8032  140.7933  159.2907 C.3     1  UNL1        0.1687
     27 C         144.2530  142.0649  159.9469 C.3     1  UNL1        0.0609
     28 C         144.6961  142.0534  161.3799 C.3     1  UNL1        0.0758
     29 O         143.3601  140.8048  157.8577 O.3     1  UNL1       -0.4790
     30 C         142.3360  139.8178  157.3814 C.ar    1  UNL1        0.1392
     31 C         140.9712  139.7938  158.0036 C.ar    1  UNL1        0.0367
     32 C         139.9471  138.8068  157.5273 C.ar    1  UNL1        0.0021
     33 C         140.2876  137.8438  156.4287 C.ar    1  UNL1        0.0177
     34 C         141.6522  137.8678  155.8065 C.ar    1  UNL1        0.0590
     35 CL        141.9927  136.9048  154.7080 Cl      1  UNL1       -0.0824
     36 C         142.6764  138.8548  156.2829 C.ar    1  UNL1        0.0480
     37 C         139.2634  136.8567  155.9524 C.3     1  UNL1        0.1644
     38 O         137.9705  137.3414  155.3664 O.3     1  UNL1       -0.3772
     39 H         137.4540  137.7932  156.0519 H       1  UNL1        0.2109
@<TRIPOS>UNITY_ATOM_ATTR
9 1
charge -1
@<TRIPOS>BOND
     1    18    19    1
     2    19    20    2
     3    19    21    2
     4    19    12    1
     5    12    13   ar
     6    13    14   ar
     7    14    15   ar
     8    15    11    1
     9    11     7    1
    10     7     8    1
    11     8     9   ar
    12     8    10   ar
    13     7     1    1
    14     1     2    1
    15     2     3    1
    16     3     4    1
    17     4    22    1
    18    22    23    1
    19    23    24    1
    20    24    25    1
    21    25    26    1
    22    26    29    1
    23    29    30    1
    24    30    31   ar
    25    31    32   ar
    26    32    33   ar
    27    33    37    1
    28    37    38    1
    29    33    34   ar
    30    34    35    1
    31    34    36   ar
    32    26    27    1
    33    27    28    1
    34     4     5    1
    35     5     6    1
    36    15    16   ar
    37    16    17   ar
    38    17    12   ar
    39     6     1    1
    40    28    23    1
    41    36    30   ar
    42    38    39    1
@<TRIPOS>MOLECULE
*****
 39 42 0 0 0
SMALL
GASTEIGER

@<TRIPOS>ATOM
      1 N         140.2745  140.3090  167.0111 N.3     1  UNL1       -0.2691
      2 C         139.0379  139.9047  166.2645 C.3     1  UNL1        0.0724
      3 C         139.1216  138.8764  165.1757 C.3     1  UNL1        0.0188
      4 C         140.4420  138.2523  164.8334 C.3     1  UNL1        0.0188
      5 C         141.6787  138.6566  165.5799 C.3     1  UNL1        0.0188
      6 C         141.5949  139.6849  166.6688 C.3     1  UNL1        0.0724
      7 C         140.1908  141.3373  168.0999 C.3     1  UNL1        0.0987
      8 C         139.8249  140.9245  169.4948 C.2     1  UNL1        0.0652
      9 O         140.1041  139.5264  169.9608 O.co2   1  UNL1       -0.5478
     10 O         139.1798  141.9100  170.4237 O.co2   1  UNL1       -0.5478
     11 C         140.4729  142.7784  167.7939 C.3     1  UNL1        0.0480
     12 C         140.2926  144.2536  163.5463 C.ar    1  UNL1        0.1057
     13 C         141.5091  143.5257  164.0365 C.ar    1  UNL1        0.0180
     14 C         141.5692  143.0340  165.4523 C.ar    1  UNL1       -0.0029
     15 C         140.4128  143.2701  166.3780 C.ar    1  UNL1       -0.0204
     16 C         139.1963  143.9980  165.8879 C.ar    1  UNL1       -0.0029
     17 C         139.1362  144.4898  164.4720 C.ar    1  UNL1        0.0180
     18 C         140.1725  145.2370  160.7147 C.3     1  UNL1        0.1816
     19 S         140.2325  144.7453  162.1305 S.O2    1  UNL1        0.0104
     20 O         138.7337  144.7279  162.1881 O.2     1  UNL1       -0.1686
     21 O         141.7313  144.7627  162.0729 O.2     1  UNL1       -0.1686
     22 C         140.5258  137.2240  163.7446 C.3     1  UNL1        0.0721
     23 N         140.6097  137.6554  162.3104 N.3     1  UNL1       -0.2724
     24 C         139.3576  137.9754  161.5490 C.3     1  UNL1        0.0758
     25 C         139.4415  138.4068  160.1148 C.3     1  UNL1        0.0609
     26 C         140.7776  138.5181  159.4420 C.3     1  UNL1        0.1687
     27 C         142.0296  138.1981  160.2035 C.3     1  UNL1        0.0609
     28 C         141.9457  137.7667  161.6376 C.3     1  UNL1        0.0758
     29 O         140.8615  138.9495  158.0079 O.3     1  UNL1       -0.4790
     30 C         141.2145  137.9525  156.9442 C.ar    1  UNL1        0.1392
     31 C         140.1288  137.2682  156.1676 C.ar    1  UNL1        0.0367
     32 C         140.4819  136.2712  155.1039 C.ar    1  UNL1        0.0021
     33 C         141.9206  135.9585  154.8169 C.ar    1  UNL1        0.0177
     34 C         143.0062  136.6427  155.5935 C.ar    1  UNL1        0.0590
     35 CL        144.4449  136.3300  155.3065 Cl      1  UNL1       -0.0824
     36 C         142.6532  137.6397  156.6572 C.ar    1  UNL1        0.0480
     37 C         142.2736  134.9614  153.7532 C.3     1  UNL1        0.1644
     38 O         142.6896  133.5721  154.1359 O.3     1  UNL1       -0.3772
     39 H         143.5339  133.6070  154.6122 H       1  UNL1        0.2109
@<TRIPOS>UNITY_ATOM_ATTR
9 1
charge -1
@<TRIPOS>BOND
     1    18    19    1
     2    19    20    2
     3    19    21    2
     4    19    12    1
     5    12    13   ar
     6    13    14   ar
     7    14    15   ar
     8    15    11    1
     9    11     7    1
    10     7     8    1
    11     8     9   ar
    12     8    10   ar
    13     7     1    1
    14     1     2    1
    15     2     3    1
    16     3     4    1
    17     4    22    1
    18    22    23    1
    19    23    24    1
    20    24    25    1
    21    25    26    1
    22    26    29    1
    23    29    30    1
    24    30    31   ar
    25    31    32   ar
    26    32    33   ar
    27    33    37    1
    28    37    38    1
    29    33    34   ar
    30    34    35    1
    31    34    36   ar
    32    26    27    1
    33    27    28    1
    34     4     5    1
    35     5     6    1
    36    15    16   ar
    37    16    17   ar
    38    17    12   ar
    39     6     1    1
    40    28    23    1
    41    36    30   ar
    42    38    39    1
@<TRIPOS>MOLECULE
*****
 39 42 0 0 0
SMALL
GASTEIGER

@<TRIPOS>ATOM
      1 N         142.3170  140.1690  166.8698 N.3     1  UNL1       -0.2691
      2 C         142.9398  138.9950  166.1743 C.3     1  UNL1        0.0724
      3 C         143.9180  139.2164  165.0589 C.3     1  UNL1        0.0188
      4 C         144.2735  140.6119  164.6390 C.3     1  UNL1        0.0188
      5 C         143.6507  141.7860  165.3345 C.3     1  UNL1        0.0188
      6 C         142.6725  141.5645  166.4499 C.3     1  UNL1        0.0724
      7 C         141.3388  139.9476  167.9852 C.3     1  UNL1        0.0987
      8 C         141.8332  139.7385  169.3859 C.2     1  UNL1        0.0652
      9 O         141.3175  140.6007  170.4997 O.co2   1  UNL1       -0.5478
     10 O         142.8433  138.6673  169.6727 O.co2   1  UNL1       -0.5478
     11 C         139.8663  139.9352  167.6999 C.3     1  UNL1        0.0480
     12 C         138.3992  139.8294  163.4471 C.ar    1  UNL1        0.1057
     13 C         138.5234  141.1404  164.1652 C.ar    1  UNL1        0.0180
     14 C         139.0124  141.1757  165.5828 C.ar    1  UNL1       -0.0029
     15 C         139.3772  139.8999  166.2823 C.ar    1  UNL1       -0.0204
     16 C         139.2530  138.5889  165.5642 C.ar    1  UNL1       -0.0029
     17 C         138.7640  138.5536  164.1466 C.ar    1  UNL1        0.0180
     18 C         137.4211  139.7589  160.6119 C.3     1  UNL1        0.1816
     19 S         137.9101  139.7941  162.0295 S.O2    1  UNL1        0.0104
     20 O         137.2518  141.1279  162.2234 O.2     1  UNL1       -0.1686
     21 O         138.5685  138.4604  161.8355 O.2     1  UNL1       -0.1686
     22 C         145.2517  140.8333  163.5237 C.3     1  UNL1        0.0721
     23 N         144.7599  140.9952  162.1159 N.3     1  UNL1       -0.2724
     24 C         144.7548  142.3511  161.4745 C.3     1  UNL1        0.0758
     25 C         144.2630  142.5130  160.0667 C.3     1  UNL1        0.0609
     26 C         143.7764  141.3190  159.3002 C.3     1  UNL1        0.1687
     27 C         143.7815  139.9631  159.9416 C.3     1  UNL1        0.0609
     28 C         144.2733  139.8012  161.3494 C.3     1  UNL1        0.0758
     29 O         143.2846  141.4810  157.8924 O.3     1  UNL1       -0.4790
     30 C         144.2050  142.0098  156.8326 C.ar    1  UNL1        0.1392
     31 C         143.6527  142.8120  155.6918 C.ar    1  UNL1        0.0367
     32 C         144.5731  143.3409  154.6320 C.ar    1  UNL1        0.0021
     33 C         146.0457  143.0676  154.7130 C.ar    1  UNL1        0.0177
     34 C         146.5980  142.2655  155.8538 C.ar    1  UNL1        0.0590
     35 CL        148.0707  141.9922  155.9348 Cl      1  UNL1       -0.0824
     36 C         145.6777  141.7366  156.9137 C.ar    1  UNL1        0.0480
     37 C         146.9661  143.5965  153.6531 C.3     1  UNL1        0.1644
     38 O         147.1408  145.0764  153.4819 O.3     1  UNL1       -0.3772
     39 H         146.3057  145.4680  153.1818 H       1  UNL1        0.2109
@<TRIPOS>UNITY_ATOM_ATTR
9 1
charge -1
@<TRIPOS>BOND
     1    18    19    1
     2    19    20    2
     3    19    21    2
     4    19    12    1
     5    12    13   ar
     6    13    14   ar
     7    14    15   ar
     8    15    11    1
     9    11     7    1
    10     7     8    1
    11     8     9   ar
    12     8    10   ar
    13     7     1    1
    14     1     2    1
    15     2     3    1
    16     3     4    1
    17     4    22    1
    18    22    23    1
    19    23    24    1
    20    24    25    1
    21    25    26    1
    22    26    29    1
    23    29    30    1
    24    30    31   ar
    25    31    32   ar
    26    32    33   ar
    27    33    37    1
    28    37    38    1
    29    33    34   ar
    30    34    35    1
    31    34    36   ar
    32    26    27    1
    33    27    28    1
    34     4     5    1
    35     5     6    1
    36    15    16   ar
    37    16    17   ar
    38    17    12   ar
    39     6     1    1
    40    28    23    1
    41    36    30   ar
    42    38    39    1
@<TRIPOS>MOLECULE
*****
 39 42 0 0 0
SMALL
GASTEIGER

@<TRIPOS>ATOM
      1 N         140.2491  140.0788  166.7681 N.3     1  UNL1       -0.2691
      2 C         138.9499  139.7909  166.0760 C.3     1  UNL1        0.0724
      3 C         138.9136  138.8459  164.9117 C.3     1  UNL1        0.0188
      4 C         140.1766  138.1887  164.4395 C.3     1  UNL1        0.0188
      5 C         141.4759  138.4766  165.1316 C.3     1  UNL1        0.0188
      6 C         141.5121  139.4216  166.2959 C.3     1  UNL1        0.0724
      7 C         140.2854  141.0238  167.9324 C.3     1  UNL1        0.0987
      8 C         139.9854  140.5233  169.3143 C.2     1  UNL1        0.0652
      9 O         140.8470  139.4615  169.9309 O.co2   1  UNL1       -0.5478
     10 O         138.8237  141.0845  170.0795 O.co2   1  UNL1       -0.5478
     11 C         140.6216  142.4693  167.7149 C.3     1  UNL1        0.0480
     12 C         140.4083  144.2315  163.5798 C.ar    1  UNL1        0.1057
     13 C         139.2270  144.3299  164.4988 C.ar    1  UNL1        0.0180
     14 C         139.2981  143.7426  165.8772 C.ar    1  UNL1       -0.0029
     15 C         140.5505  143.0567  166.3365 C.ar    1  UNL1       -0.0204
     16 C         141.7318  142.9582  165.4175 C.ar    1  UNL1       -0.0029
     17 C         141.6607  143.5456  164.0391 C.ar    1  UNL1        0.0180
     18 C         140.2661  145.4062  160.8230 C.3     1  UNL1        0.1816
     19 S         140.3372  144.8188  162.2014 S.O2    1  UNL1        0.0104
     20 O         141.8065  144.5759  162.0221 O.2     1  UNL1       -0.1686
     21 O         138.8679  145.0618  162.3807 O.2     1  UNL1       -0.1686
     22 C         140.1404  137.2437  163.2752 C.3     1  UNL1        0.0721
     23 N         140.4589  137.7401  161.8960 N.3     1  UNL1       -0.2724
     24 C         141.8857  137.8304  161.4424 C.3     1  UNL1        0.0758
     25 C         142.2043  138.3268  160.0632 C.3     1  UNL1        0.0609
     26 C         141.0960  138.7331  159.1377 C.3     1  UNL1        0.1687
     27 C         139.6691  138.6429  159.5914 C.3     1  UNL1        0.0609
     28 C         139.3506  138.1464  160.9706 C.3     1  UNL1        0.0758
     29 O         141.4145  139.2296  157.7586 O.3     1  UNL1       -0.4790
     30 C         141.5994  140.6979  157.5141 C.ar    1  UNL1        0.1392
     31 C         142.9707  141.2485  157.2562 C.ar    1  UNL1        0.0367
     32 C         143.1555  142.7168  157.0118 C.ar    1  UNL1        0.0021
     33 C         141.9692  143.6346  157.0252 C.ar    1  UNL1        0.0177
     34 C         140.5979  143.0841  157.2831 C.ar    1  UNL1        0.0590
     35 CL        139.4115  144.0018  157.2965 Cl      1  UNL1       -0.0824
     36 C         140.4130  141.6157  157.5275 C.ar    1  UNL1        0.0480
     37 C         142.1541  145.1030  156.7807 C.3     1  UNL1        0.1644
     38 O         142.6075  145.9977  157.8960 O.3     1  UNL1       -0.3772
     39 H         141.9223  146.0324  158.5816 H       1  UNL1        0.2109
@<TRIPOS>UNITY_ATOM_ATTR
9 1
charge -1
@<TRIPOS>BOND
     1    18    19    1
     2    19    20    2
     3    19    21    2
     4    19    12    1
     5    12    13   ar
     6    13    14   ar
     7    14    15   ar
     8    15    11    1
     9    11     7    1
    10     7     8    1
    11     8     9   ar
    12     8    10   ar
    13     7     1    1
    14     1     2    1
    15     2     3    1
    16     3     4    1
    17     4    22    1
    18    22    23    1
    19    23    24    1
    20    24    25    1
    21    25    26    1
    22    26    29    1
    23    29    30    1
    24    30    31   ar
    25    31    32   ar
    26    32    33   ar
    27    33    37    1
    28    37    38    1
    29    33    34   ar
    30    34    35    1
    31    34    36   ar
    32    26    27    1
    33    27    28    1
    34     4     5    1
    35     5     6    1
    36    15    16   ar
    37    16    17   ar
    38    17    12   ar
    39     6     1    1
    40    28    23    1
    41    36    30   ar
    42    38    39    1
