@<TRIPOS>MOLECULE
*****
 24 26 0 0 0
SMALL
GASTEIGER

@<TRIPOS>ATOM
      1 N         140.6067  141.1502  168.7727 N.am    1  UNL1       -0.2752
      2 C         141.6360  141.5369  167.7524 C.3     1  UNL1        0.1206
      3 C         141.5456  140.9993  166.3549 C.3     1  UNL1        0.1141
      4 C         141.4553  140.4618  164.9575 C.3     1  UNL1        0.0463
      5 C         142.4845  140.8484  163.9372 C.3     1  UNL1        0.0746
      6 N         143.6042  141.7726  164.3143 N.3     1  UNL1       -0.2722
      7 C         143.6946  142.3101  165.7117 C.3     1  UNL1        0.0746
      8 C         142.6653  141.9235  166.7320 C.3     1  UNL1        0.0463
      9 O         140.4260  140.0751  165.9778 O.3     1  UNL1       -0.3501
     10 C         139.3967  139.6885  166.9981 C.3     1  UNL1        0.1909
     11 C         138.2770  138.7643  166.6210 C.3     1  UNL1        0.0420
     12 C         139.4870  140.2260  168.3956 C.2     1  UNL1        0.2529
     13 O         138.4577  139.8394  169.4159 O.2     1  UNL1       -0.2722
     14 C         139.8498  142.8555  170.5808 C.3     1  UNL1        0.0233
     15 C         140.6970  141.6878  170.1702 C.3     1  UNL1        0.0936
     16 C         144.6335  142.1592  163.2939 C.3     1  UNL1        0.0768
     17 C         144.5028  143.4555  162.5506 C.3     1  UNL1        0.0437
     18 C         143.1643  144.1230  162.4367 C.ar    1  UNL1       -0.0206
     19 C         142.3266  143.9193  161.2092 C.ar    1  UNL1       -0.0019
     20 C         140.9882  144.5868  161.0954 C.ar    1  UNL1        0.0293
     21 C         140.4874  145.4581  162.2090 C.ar    1  UNL1        0.1401
     22 F         139.1489  146.1256  162.0951 F       1  UNL1       -0.2042
     23 C         141.3251  145.6618  163.4365 C.ar    1  UNL1        0.0293
     24 C         142.6635  144.9943  163.5503 C.ar    1  UNL1       -0.0019
@<TRIPOS>BOND
     1    14    15    1
     2    15     1    1
     3     1     2    1
     4     2     3    1
     5     3     4    1
     6     4     5    1
     7     5     6    1
     8     6    16    1
     9    16    17    1
    10    17    18    1
    11    18    19   ar
    12    19    20   ar
    13    20    21   ar
    14    21    22    1
    15    21    23   ar
    16    23    24   ar
    17     6     7    1
    18     7     8    1
    19     3     9    1
    20     9    10    1
    21    10    11    1
    22    10    12    1
    23    12    13    2
    24    12     1   am
    25     8     3    1
    26    24    18   ar
@<TRIPOS>MOLECULE
*****
 24 26 0 0 0
SMALL
GASTEIGER

@<TRIPOS>ATOM
      1 N         139.4789  139.5399  166.7035 N.am    1  UNL1       -0.2752
      2 C         140.5625  140.0288  165.7889 C.3     1  UNL1        0.1206
      3 C         141.5867  141.0021  166.2926 C.3     1  UNL1        0.1141
      4 C         142.6109  141.9754  166.7964 C.3     1  UNL1        0.0463
      5 C         143.6945  142.4643  165.8818 C.3     1  UNL1        0.0746
      6 N         143.7540  141.9800  164.4634 N.3     1  UNL1       -0.2722
      7 C         142.7299  141.0068  163.9596 C.3     1  UNL1        0.0746
      8 C         141.6462  140.5178  164.8742 C.3     1  UNL1        0.0463
      9 O         141.5272  141.4864  167.7111 O.3     1  UNL1       -0.3501
     10 C         140.4435  140.9974  168.6257 C.3     1  UNL1        0.1909
     11 C         140.3840  141.4817  170.0441 C.3     1  UNL1        0.0420
     12 C         139.4193  140.0242  168.1219 C.2     1  UNL1        0.2529
     13 O         138.3356  139.5352  169.0365 O.2     1  UNL1       -0.2722
     14 C         138.8318  137.5507  165.1625 C.3     1  UNL1        0.0233
     15 C         138.4546  138.5666  166.1997 C.3     1  UNL1        0.0936
     16 C         144.8378  142.4691  163.5488 C.3     1  UNL1        0.0768
     17 C         144.5359  143.5220  162.5241 C.3     1  UNL1        0.0437
     18 C         143.1623  144.1196  162.4449 C.ar    1  UNL1       -0.0206
     19 C         142.2591  143.7741  161.2983 C.ar    1  UNL1       -0.0019
     20 C         140.8856  144.3717  161.2191 C.ar    1  UNL1        0.0293
     21 C         140.4153  145.3148  162.2865 C.ar    1  UNL1        0.1401
     22 F         139.0417  145.9124  162.2073 F       1  UNL1       -0.2042
     23 C         141.3185  145.6603  163.4332 C.ar    1  UNL1        0.0293
     24 C         142.6920  145.0627  163.5123 C.ar    1  UNL1       -0.0019
@<TRIPOS>BOND
     1    14    15    1
     2    15     1    1
     3     1     2    1
     4     2     3    1
     5     3     4    1
     6     4     5    1
     7     5     6    1
     8     6    16    1
     9    16    17    1
    10    17    18    1
    11    18    19   ar
    12    19    20   ar
    13    20    21   ar
    14    21    22    1
    15    21    23   ar
    16    23    24   ar
    17     6     7    1
    18     7     8    1
    19     3     9    1
    20     9    10    1
    21    10    11    1
    22    10    12    1
    23    12    13    2
    24    12     1   am
    25     8     3    1
    26    24    18   ar
@<TRIPOS>MOLECULE
*****
 24 26 0 0 0
SMALL
GASTEIGER

@<TRIPOS>ATOM
      1 N         141.4858  140.5983  169.2840 N.am    1  UNL1       -0.2752
      2 C         141.3342  140.2002  167.8458 C.3     1  UNL1        0.1206
      3 C         140.0087  139.7159  167.3373 C.3     1  UNL1        0.1141
      4 C         138.6833  139.2315  166.8289 C.3     1  UNL1        0.0463
      5 C         138.5317  138.8334  165.3907 C.3     1  UNL1        0.0746
      6 N         139.7056  138.9197  164.4609 N.3     1  UNL1       -0.2722
      7 C         141.0311  139.4040  164.9693 C.3     1  UNL1        0.0746
      8 C         141.1826  139.8021  166.4075 C.3     1  UNL1        0.0463
      9 O         138.8348  139.6296  168.2671 O.3     1  UNL1       -0.3501
     10 C         138.9864  140.0277  169.7054 C.3     1  UNL1        0.1909
     11 C         137.8125  139.9415  170.6352 C.3     1  UNL1        0.0420
     12 C         140.3119  140.5121  170.2138 C.2     1  UNL1        0.2529
     13 O         140.4635  140.9102  171.6521 O.2     1  UNL1       -0.2722
     14 C         143.4915  142.2423  169.1273 C.3     1  UNL1        0.0233
     15 C         142.8113  141.0827  169.7925 C.3     1  UNL1        0.0936
     16 C         139.5540  138.5216  163.0226 C.3     1  UNL1        0.0768
     17 C         138.7170  139.3549  162.0979 C.3     1  UNL1        0.0437
     18 C         138.7127  140.8490  162.2317 C.ar    1  UNL1       -0.0206
     19 C         139.8759  141.6505  161.7274 C.ar    1  UNL1       -0.0019
     20 C         139.8715  143.1445  161.8612 C.ar    1  UNL1        0.0293
     21 C         138.7039  143.8369  162.4993 C.ar    1  UNL1        0.1401
     22 F         138.6995  145.3310  162.6331 F       1  UNL1       -0.2042
     23 C         137.5406  143.0354  163.0036 C.ar    1  UNL1        0.0293
     24 C         137.5451  141.5414  162.8698 C.ar    1  UNL1       -0.0019
@<TRIPOS>BOND
     1    14    15    1
     2    15     1    1
     3     1     2    1
     4     2     3    1
     5     3     4    1
     6     4     5    1
     7     5     6    1
     8     6    16    1
     9    16    17    1
    10    17    18    1
    11    18    19   ar
    12    19    20   ar
    13    20    21   ar
    14    21    22    1
    15    21    23   ar
    16    23    24   ar
    17     6     7    1
    18     7     8    1
    19     3     9    1
    20     9    10    1
    21    10    11    1
    22    10    12    1
    23    12    13    2
    24    12     1   am
    25     8     3    1
    26    24    18   ar
@<TRIPOS>MOLECULE
*****
 24 26 0 0 0
SMALL
GASTEIGER

@<TRIPOS>ATOM
      1 N         140.9219  140.0616  168.1987 N.am    1  UNL1       -0.2752
      2 C         140.0326  140.2895  167.0125 C.3     1  UNL1        0.1206
      3 C         140.4521  139.8046  165.6564 C.3     1  UNL1        0.1141
      4 C         140.8717  139.3197  164.3004 C.3     1  UNL1        0.0463
      5 C         139.9824  139.5475  163.1142 C.3     1  UNL1        0.0746
      6 N         138.6735  140.2603  163.2839 N.3     1  UNL1       -0.2722
      7 C         138.2539  140.7452  164.6399 C.3     1  UNL1        0.0746
      8 C         139.1432  140.5174  165.8262 C.3     1  UNL1        0.0463
      9 O         141.7610  139.0918  165.4866 O.3     1  UNL1       -0.3501
     10 C         142.6503  138.8639  166.6729 C.3     1  UNL1        0.1909
     11 C         143.9591  138.1512  166.5032 C.3     1  UNL1        0.0420
     12 C         142.2307  139.3489  168.0289 C.2     1  UNL1        0.2529
     13 O         143.1200  139.1210  169.2152 O.2     1  UNL1       -0.2722
     14 C         139.0654  140.4502  169.9743 C.3     1  UNL1        0.0233
     15 C         140.5023  140.5466  169.5548 C.3     1  UNL1        0.0936
     16 C         137.7842  140.4882  162.0976 C.3     1  UNL1        0.0768
     17 C         137.8994  141.7575  161.3067 C.3     1  UNL1        0.0437
     18 C         138.8125  142.8521  161.7739 C.ar    1  UNL1       -0.0206
     19 C         138.3047  143.8998  162.7196 C.ar    1  UNL1       -0.0019
     20 C         139.2177  144.9943  163.1868 C.ar    1  UNL1        0.0293
     21 C         140.6386  145.0411  162.7083 C.ar    1  UNL1        0.1401
     22 F         141.5517  146.1357  163.1755 F       1  UNL1       -0.2042
     23 C         141.1464  143.9934  161.7626 C.ar    1  UNL1        0.0293
     24 C         140.2334  142.8989  161.2954 C.ar    1  UNL1       -0.0019
@<TRIPOS>BOND
     1    14    15    1
     2    15     1    1
     3     1     2    1
     4     2     3    1
     5     3     4    1
     6     4     5    1
     7     5     6    1
     8     6    16    1
     9    16    17    1
    10    17    18    1
    11    18    19   ar
    12    19    20   ar
    13    20    21   ar
    14    21    22    1
    15    21    23   ar
    16    23    24   ar
    17     6     7    1
    18     7     8    1
    19     3     9    1
    20     9    10    1
    21    10    11    1
    22    10    12    1
    23    12    13    2
    24    12     1   am
    25     8     3    1
    26    24    18   ar
@<TRIPOS>MOLECULE
*****
 24 26 0 0 0
SMALL
GASTEIGER

@<TRIPOS>ATOM
      1 N         139.5973  143.5933  163.4288 N.am    1  UNL1       -0.2752
      2 C         140.4618  142.8476  164.4016 C.3     1  UNL1        0.1206
      3 C         140.3887  141.3511  164.4759 C.3     1  UNL1        0.1141
      4 C         140.3156  139.8548  164.5501 C.3     1  UNL1        0.0463
      5 C         141.1801  139.1090  165.5229 C.3     1  UNL1        0.0746
      6 N         142.1177  139.8596  166.4215 N.3     1  UNL1       -0.2722
      7 C         142.1909  141.3560  166.3473 C.3     1  UNL1        0.0746
      8 C         141.3264  142.1017  165.3745 C.3     1  UNL1        0.0463
      9 O         139.4511  140.6005  163.5773 O.3     1  UNL1       -0.3501
     10 C         138.5866  141.3464  162.6044 C.3     1  UNL1        0.1909
     11 C         137.6489  140.5958  161.7058 C.3     1  UNL1        0.0420
     12 C         138.6597  142.8427  162.5302 C.2     1  UNL1        0.2529
     13 O         137.7952  143.5886  161.5573 O.2     1  UNL1       -0.2722
     14 C         140.3663  145.7503  162.2014 C.3     1  UNL1        0.0233
     15 C         139.6704  145.0897  163.3545 C.3     1  UNL1        0.0936
     16 C         142.9822  139.1138  167.3944 C.3     1  UNL1        0.0768
     17 C         142.6345  139.1056  168.8535 C.3     1  UNL1        0.0437
     18 C         141.7606  140.1839  169.4224 C.ar    1  UNL1       -0.0206
     19 C         140.2679  140.0465  169.3673 C.ar    1  UNL1       -0.0019
     20 C         139.3941  141.1247  169.9362 C.ar    1  UNL1        0.0293
     21 C         140.0129  142.3404  170.5600 C.ar    1  UNL1        0.1401
     22 F         139.1389  143.4188  171.1289 F       1  UNL1       -0.2042
     23 C         141.5055  142.4779  170.6150 C.ar    1  UNL1        0.0293
     24 C         142.3794  141.3996  170.0462 C.ar    1  UNL1       -0.0019
@<TRIPOS>BOND
     1    14    15    1
     2    15     1    1
     3     1     2    1
     4     2     3    1
     5     3     4    1
     6     4     5    1
     7     5     6    1
     8     6    16    1
     9    16    17    1
    10    17    18    1
    11    18    19   ar
    12    19    20   ar
    13    20    21   ar
    14    21    22    1
    15    21    23   ar
    16    23    24   ar
    17     6     7    1
    18     7     8    1
    19     3     9    1
    20     9    10    1
    21    10    11    1
    22    10    12    1
    23    12    13    2
    24    12     1   am
    25     8     3    1
    26    24    18   ar
@<TRIPOS>MOLECULE
*****
 24 26 0 0 0
SMALL
GASTEIGER

@<TRIPOS>ATOM
      1 N         140.2893  141.8326  168.0558 N.am    1  UNL1       -0.2752
      2 C         140.3485  142.6441  166.7958 C.3     1  UNL1        0.1206
      3 C         139.7246  142.1204  165.5362 C.3     1  UNL1        0.1141
      4 C         139.1007  141.5966  164.2767 C.3     1  UNL1        0.0463
      5 C         139.1600  142.4082  163.0167 C.3     1  UNL1        0.0746
      6 N         139.8432  143.7435  163.0161 N.3     1  UNL1       -0.2722
      7 C         140.4671  144.2673  164.2756 C.3     1  UNL1        0.0746
      8 C         140.4078  143.4557  165.5356 C.3     1  UNL1        0.0463
      9 O         139.0414  140.7850  165.5368 O.3     1  UNL1       -0.3501
     10 C         138.9821  139.9734  166.7969 C.3     1  UNL1        0.1909
     11 C         138.2989  138.6380  166.7975 C.3     1  UNL1        0.0420
     12 C         139.6060  140.4972  168.0564 C.2     1  UNL1        0.2529
     13 O         139.5468  139.6856  169.3165 O.2     1  UNL1       -0.2722
     14 C         140.5191  143.7039  169.8434 C.3     1  UNL1        0.0233
     15 C         140.9132  142.3563  169.3154 C.3     1  UNL1        0.0936
     16 C         139.9024  144.5551  161.7560 C.3     1  UNL1        0.0768
     17 C         141.1555  144.5699  160.9317 C.3     1  UNL1        0.0437
     18 C         142.3791  143.8484  161.4138 C.ar    1  UNL1       -0.0206
     19 C         142.6629  142.4538  160.9401 C.ar    1  UNL1       -0.0019
     20 C         143.8863  141.7324  161.4222 C.ar    1  UNL1        0.0293
     21 C         144.8260  142.4055  162.3782 C.ar    1  UNL1        0.1401
     22 F         146.0496  141.6840  162.8604 F       1  UNL1       -0.2042
     23 C         144.5422  143.8001  162.8520 C.ar    1  UNL1        0.0293
     24 C         143.3187  144.5215  162.3698 C.ar    1  UNL1       -0.0019
@<TRIPOS>BOND
     1    14    15    1
     2    15     1    1
     3     1     2    1
     4     2     3    1
     5     3     4    1
     6     4     5    1
     7     5     6    1
     8     6    16    1
     9    16    17    1
    10    17    18    1
    11    18    19   ar
    12    19    20   ar
    13    20    21   ar
    14    21    22    1
    15    21    23   ar
    16    23    24   ar
    17     6     7    1
    18     7     8    1
    19     3     9    1
    20     9    10    1
    21    10    11    1
    22    10    12    1
    23    12    13    2
    24    12     1   am
    25     8     3    1
    26    24    18   ar
@<TRIPOS>MOLECULE
*****
 24 26 0 0 0
SMALL
GASTEIGER

@<TRIPOS>ATOM
      1 N         142.3480  143.1521  161.2656 N.am    1  UNL1       -0.2752
      2 C         142.0354  142.2213  162.3996 C.3     1  UNL1        0.1206
      3 C         140.9365  142.5566  163.3640 C.3     1  UNL1        0.1141
      4 C         139.8376  142.8919  164.3283 C.3     1  UNL1        0.0463
      5 C         139.5250  141.9612  165.4622 C.3     1  UNL1        0.0746
      6 N         140.3113  140.6951  165.6319 N.3     1  UNL1       -0.2722
      7 C         141.4101  140.3598  164.6675 C.3     1  UNL1        0.0746
      8 C         141.7227  141.2905  163.5336 C.3     1  UNL1        0.0463
      9 O         140.1502  143.8227  163.1944 O.3     1  UNL1       -0.3501
     10 C         140.4629  144.7535  162.0603 C.3     1  UNL1        0.1909
     11 C         139.6766  146.0196  161.8907 C.3     1  UNL1        0.0420
     12 C         141.5618  144.4182  161.0960 C.2     1  UNL1        0.2529
     13 O         141.8744  145.3490  159.9620 O.2     1  UNL1       -0.2722
     14 C         143.7150  141.3865  159.9374 C.3     1  UNL1        0.0233
     15 C         143.4470  142.8168  160.3012 C.3     1  UNL1        0.0936
     16 C         139.9986  139.7643  166.7659 C.3     1  UNL1        0.0768
     17 C         139.6852  140.3165  168.1248 C.3     1  UNL1        0.0437
     18 C         140.6887  141.1763  168.8347 C.ar    1  UNL1       -0.0206
     19 C         142.0519  140.6348  169.1484 C.ar    1  UNL1       -0.0019
     20 C         143.0553  141.4947  169.8582 C.ar    1  UNL1        0.0293
     21 C         142.6955  142.8960  170.2543 C.ar    1  UNL1        0.1401
     22 F         143.6990  143.7558  170.9642 F       1  UNL1       -0.2042
     23 C         141.3323  143.4375  169.9406 C.ar    1  UNL1        0.0293
     24 C         140.3289  142.5776  169.2308 C.ar    1  UNL1       -0.0019
@<TRIPOS>BOND
     1    14    15    1
     2    15     1    1
     3     1     2    1
     4     2     3    1
     5     3     4    1
     6     4     5    1
     7     5     6    1
     8     6    16    1
     9    16    17    1
    10    17    18    1
    11    18    19   ar
    12    19    20   ar
    13    20    21   ar
    14    21    22    1
    15    21    23   ar
    16    23    24   ar
    17     6     7    1
    18     7     8    1
    19     3     9    1
    20     9    10    1
    21    10    11    1
    22    10    12    1
    23    12    13    2
    24    12     1   am
    25     8     3    1
    26    24    18   ar
@<TRIPOS>MOLECULE
*****
 24 26 0 0 0
SMALL
GASTEIGER

@<TRIPOS>ATOM
      1 N         140.7568  145.0875  161.0899 N.am    1  UNL1       -0.2752
      2 C         141.6620  144.2758  161.9684 C.3     1  UNL1        0.1206
      3 C         142.8163  143.5285  161.3691 C.3     1  UNL1        0.1141
      4 C         143.9706  142.7812  160.7697 C.3     1  UNL1        0.0463
      5 C         144.8758  141.9695  161.6482 C.3     1  UNL1        0.0746
      6 N         144.6267  141.9051  163.1260 N.3     1  UNL1       -0.2722
      7 C         143.4725  142.6524  163.7253 C.3     1  UNL1        0.0746
      8 C         142.5673  143.4641  162.8468 C.3     1  UNL1        0.0463
      9 O         143.0654  143.5929  159.8913 O.3     1  UNL1       -0.3501
     10 C         142.1601  144.4046  159.0128 C.3     1  UNL1        0.1909
     11 C         142.4091  144.4690  157.5350 C.3     1  UNL1        0.0420
     12 C         141.0058  145.1519  159.6121 C.2     1  UNL1        0.2529
     13 O         140.1005  145.9636  158.7337 O.2     1  UNL1       -0.2722
     14 C         138.8180  145.2266  162.8139 C.3     1  UNL1        0.0233
     15 C         139.6024  145.8348  161.6892 C.3     1  UNL1        0.0936
     16 C         145.5320  141.0934  164.0044 C.3     1  UNL1        0.0768
     17 C         145.2353  139.6440  164.2516 C.3     1  UNL1        0.0437
     18 C         143.9093  139.0705  163.8481 C.ar    1  UNL1       -0.0206
     19 C         143.7078  138.5555  162.4538 C.ar    1  UNL1       -0.0019
     20 C         142.3819  137.9820  162.0504 C.ar    1  UNL1        0.0293
     21 C         141.2573  137.9235  163.0413 C.ar    1  UNL1        0.1401
     22 F         139.9312  137.3499  162.6378 F       1  UNL1       -0.2042
     23 C         141.4587  138.4385  164.4356 C.ar    1  UNL1        0.0293
     24 C         142.7847  139.0120  164.8390 C.ar    1  UNL1       -0.0019
@<TRIPOS>BOND
     1    14    15    1
     2    15     1    1
     3     1     2    1
     4     2     3    1
     5     3     4    1
     6     4     5    1
     7     5     6    1
     8     6    16    1
     9    16    17    1
    10    17    18    1
    11    18    19   ar
    12    19    20   ar
    13    20    21   ar
    14    21    22    1
    15    21    23   ar
    16    23    24   ar
    17     6     7    1
    18     7     8    1
    19     3     9    1
    20     9    10    1
    21    10    11    1
    22    10    12    1
    23    12    13    2
    24    12     1   am
    25     8     3    1
    26    24    18   ar
@<TRIPOS>MOLECULE
*****
 24 26 0 0 0
SMALL
GASTEIGER

@<TRIPOS>ATOM
      1 N         142.3528  140.6589  169.7217 N.am    1  UNL1       -0.2752
      2 C         142.5680  140.5052  168.2452 C.3     1  UNL1        0.1206
      3 C         142.0329  141.5377  167.2977 C.3     1  UNL1        0.1141
      4 C         141.4977  142.5701  166.3503 C.3     1  UNL1        0.0463
      5 C         141.7129  142.4164  164.8739 C.3     1  UNL1        0.0746
      6 N         142.4633  141.2302  164.3448 N.3     1  UNL1       -0.2722
      7 C         142.9984  140.1978  165.2922 C.3     1  UNL1        0.0746
      8 C         142.7832  140.3515  166.7686 C.3     1  UNL1        0.0463
      9 O         141.2825  142.7238  167.8268 O.3     1  UNL1       -0.3501
     10 C         141.0673  142.8775  169.3034 C.3     1  UNL1        0.1909
     11 C         140.3170  144.0637  169.8325 C.3     1  UNL1        0.0420
     12 C         141.6025  141.8451  170.2507 C.2     1  UNL1        0.2529
     13 O         141.3873  141.9987  171.7273 O.2     1  UNL1       -0.2722
     14 C         142.9560  138.1877  170.2503 C.3     1  UNL1        0.0233
     15 C         142.8880  139.6264  170.6691 C.3     1  UNL1        0.0936
     16 C         142.6785  141.0765  162.8682 C.3     1  UNL1        0.0768
     17 C         142.4289  139.7532  162.2077 C.3     1  UNL1        0.0437
     18 C         141.0255  139.2485  162.0458 C.ar    1  UNL1       -0.0206
     19 C         140.4781  138.2338  163.0053 C.ar    1  UNL1       -0.0019
     20 C         139.0749  137.7292  162.8434 C.ar    1  UNL1        0.0293
     21 C         138.2191  138.2393  161.7221 C.ar    1  UNL1        0.1401
     22 F         136.8158  137.7347  161.5602 F       1  UNL1       -0.2042
     23 C         138.7665  139.2541  160.7626 C.ar    1  UNL1        0.0293
     24 C         140.1697  139.7587  160.9245 C.ar    1  UNL1       -0.0019
@<TRIPOS>BOND
     1    14    15    1
     2    15     1    1
     3     1     2    1
     4     2     3    1
     5     3     4    1
     6     4     5    1
     7     5     6    1
     8     6    16    1
     9    16    17    1
    10    17    18    1
    11    18    19   ar
    12    19    20   ar
    13    20    21   ar
    14    21    22    1
    15    21    23   ar
    16    23    24   ar
    17     6     7    1
    18     7     8    1
    19     3     9    1
    20     9    10    1
    21    10    11    1
    22    10    12    1
    23    12    13    2
    24    12     1   am
    25     8     3    1
    26    24    18   ar
