@<TRIPOS>MOLECULE
*****
 23 25 0 0 0
SMALL
GASTEIGER

@<TRIPOS>ATOM
      1 C         141.7133  143.3967  164.5977 C.ar    1  UNL1       -0.0150
      2 C         141.5723  144.2069  163.3432 C.ar    1  UNL1        0.0167
      3 C         142.7045  144.2726  162.3615 C.ar    1  UNL1        0.0983
      4 N         143.9778  143.5280  162.6343 N.ar    1  UNL1       -0.2445
      5 C         144.1189  142.7178  163.8887 C.ar    1  UNL1        0.1023
      6 C         142.9866  142.6521  164.8704 C.ar    1  UNL1        0.0145
      7 C         140.5811  143.3310  165.5793 C.3     1  UNL1        0.0527
      8 C         137.8487  138.1002  166.6620 C.3     1  UNL1        0.0310
      9 C         138.5318  139.4079  166.3914 C.ar    1  UNL1       -0.0219
     10 C         138.2230  140.1698  165.1367 C.ar    1  UNL1       -0.0046
     11 C         138.9061  141.4775  164.8661 C.ar    1  UNL1       -0.0043
     12 C         139.8980  142.0233  165.8500 C.ar    1  UNL1       -0.0178
     13 C         140.2068  141.2614  167.1046 C.ar    1  UNL1       -0.0043
     14 C         139.5237  139.9537  167.3753 C.ar    1  UNL1       -0.0046
     15 C         145.3922  141.9732  164.1614 C.3     1  UNL1        0.2508
     16 O         145.4814  140.5058  163.8637 O.3     1  UNL1       -0.4690
     17 C         144.2707  139.6340  164.0194 C.ar    1  UNL1        0.1391
     18 C         143.5295  139.1562  162.8060 C.ar    1  UNL1        0.0366
     19 C         142.3189  138.2843  162.9616 C.ar    1  UNL1       -0.0011
     20 C         141.8494  137.8903  164.3308 C.ar    1  UNL1       -0.0217
     21 C         140.6388  137.0185  164.4864 C.3     1  UNL1        0.0310
     22 C         142.5906  138.3681  165.5441 C.ar    1  UNL1       -0.0011
     23 C         143.8013  139.2400  165.3885 C.ar    1  UNL1        0.0366
@<TRIPOS>BOND
     1     8     9    1
     2     9    10   ar
     3    10    11   ar
     4    11    12   ar
     5    12     7    1
     6     7     1    1
     7     1     2   ar
     8     2     3   ar
     9     3     4   ar
    10     4     5   ar
    11     5    15    1
    12    15    16    1
    13    16    17    1
    14    17    18   ar
    15    18    19   ar
    16    19    20   ar
    17    20    21    1
    18    20    22   ar
    19    22    23   ar
    20     5     6   ar
    21    12    13   ar
    22    13    14   ar
    23    14     9   ar
    24     6     1   ar
    25    23    17   ar
@<TRIPOS>MOLECULE
*****
 23 25 0 0 0
SMALL
GASTEIGER

@<TRIPOS>ATOM
      1 C         138.1289  140.2159  164.1462 C.ar    1  UNL1       -0.0150
      2 C         137.9334  139.7360  162.7385 C.ar    1  UNL1        0.0167
      3 C         137.7012  140.7246  161.6345 C.ar    1  UNL1        0.0983
      4 N         137.6646  142.1930  161.9381 N.ar    1  UNL1       -0.2445
      5 C         137.8601  142.6730  163.3457 C.ar    1  UNL1        0.1023
      6 C         138.0922  141.6844  164.4498 C.ar    1  UNL1        0.0145
      7 C         138.3611  139.2274  165.2502 C.3     1  UNL1        0.0527
      8 C         142.7714  140.1386  169.2148 C.3     1  UNL1        0.0310
      9 C         141.6688  139.9108  168.2236 C.ar    1  UNL1       -0.0219
     10 C         141.9948  139.4724  166.8267 C.ar    1  UNL1       -0.0046
     11 C         140.8922  139.2446  165.8355 C.ar    1  UNL1       -0.0043
     12 C         139.4636  139.4552  166.2413 C.ar    1  UNL1       -0.0178
     13 C         139.1376  139.8936  167.6383 C.ar    1  UNL1       -0.0043
     14 C         140.2402  140.1214  168.6294 C.ar    1  UNL1       -0.0046
     15 C         137.8234  144.1415  163.6493 C.3     1  UNL1        0.2508
     16 O         138.7609  144.7205  164.6671 O.3     1  UNL1       -0.4690
     17 C         140.2019  144.3043  164.6820 C.ar    1  UNL1        0.1391
     18 C         141.1799  144.9540  163.7485 C.ar    1  UNL1        0.0366
     19 C         142.6209  144.5378  163.7634 C.ar    1  UNL1       -0.0011
     20 C         143.0839  143.4718  164.7119 C.ar    1  UNL1       -0.0217
     21 C         144.5249  143.0555  164.7268 C.3     1  UNL1        0.0310
     22 C         142.1059  142.8221  165.6453 C.ar    1  UNL1       -0.0011
     23 C         140.6648  143.2384  165.6304 C.ar    1  UNL1        0.0366
@<TRIPOS>BOND
     1     8     9    1
     2     9    10   ar
     3    10    11   ar
     4    11    12   ar
     5    12     7    1
     6     7     1    1
     7     1     2   ar
     8     2     3   ar
     9     3     4   ar
    10     4     5   ar
    11     5    15    1
    12    15    16    1
    13    16    17    1
    14    17    18   ar
    15    18    19   ar
    16    19    20   ar
    17    20    21    1
    18    20    22   ar
    19    22    23   ar
    20     5     6   ar
    21    12    13   ar
    22    13    14   ar
    23    14     9   ar
    24     6     1   ar
    25    23    17   ar
@<TRIPOS>MOLECULE
*****
 23 25 0 0 0
SMALL
GASTEIGER

@<TRIPOS>ATOM
      1 C         139.1856  138.4393  165.0542 C.ar    1  UNL1       -0.0150
      2 C         140.3592  137.5251  164.8618 C.ar    1  UNL1        0.0167
      3 C         140.8705  137.2416  163.4805 C.ar    1  UNL1        0.0983
      4 N         140.2082  137.8722  162.2915 N.ar    1  UNL1       -0.2445
      5 C         139.0346  138.7864  162.4838 C.ar    1  UNL1        0.1023
      6 C         138.5233  139.0699  163.8652 C.ar    1  UNL1        0.0145
      7 C         138.6743  138.7229  166.4356 C.3     1  UNL1        0.0527
      8 C         140.9141  143.3163  169.5794 C.3     1  UNL1        0.0310
      9 C         140.3542  142.1679  168.7935 C.ar    1  UNL1       -0.0219
     10 C         140.4943  142.1419  167.3003 C.ar    1  UNL1       -0.0046
     11 C         139.9343  140.9936  166.5143 C.ar    1  UNL1       -0.0043
     12 C         139.2343  139.8712  167.2215 C.ar    1  UNL1       -0.0178
     13 C         139.0942  139.8972  168.7147 C.ar    1  UNL1       -0.0043
     14 C         139.6541  141.0456  169.5007 C.ar    1  UNL1       -0.0046
     15 C         138.3724  139.4170  161.2948 C.3     1  UNL1        0.2508
     16 O         138.6031  140.8673  160.9893 O.3     1  UNL1       -0.4690
     17 C         138.6744  141.8667  162.1055 C.ar    1  UNL1        0.1391
     18 C         137.4392  142.2112  162.8839 C.ar    1  UNL1        0.0366
     19 C         137.5106  143.2107  164.0001 C.ar    1  UNL1       -0.0011
     20 C         138.8171  143.8657  164.3380 C.ar    1  UNL1       -0.0217
     21 C         138.8884  144.8652  165.4542 C.3     1  UNL1        0.0310
     22 C         140.0522  143.5212  163.5597 C.ar    1  UNL1       -0.0011
     23 C         139.9808  142.5217  162.4435 C.ar    1  UNL1        0.0366
@<TRIPOS>BOND
     1     8     9    1
     2     9    10   ar
     3    10    11   ar
     4    11    12   ar
     5    12     7    1
     6     7     1    1
     7     1     2   ar
     8     2     3   ar
     9     3     4   ar
    10     4     5   ar
    11     5    15    1
    12    15    16    1
    13    16    17    1
    14    17    18   ar
    15    18    19   ar
    16    19    20   ar
    17    20    21    1
    18    20    22   ar
    19    22    23   ar
    20     5     6   ar
    21    12    13   ar
    22    13    14   ar
    23    14     9   ar
    24     6     1   ar
    25    23    17   ar
@<TRIPOS>MOLECULE
*****
 23 25 0 0 0
SMALL
GASTEIGER

@<TRIPOS>ATOM
      1 C         143.0070  138.4700  163.2804 C.ar    1  UNL1       -0.0150
      2 C         143.4845  138.2253  161.8796 C.ar    1  UNL1        0.0167
      3 C         142.5010  137.8771  160.8019 C.ar    1  UNL1        0.0983
      4 N         141.0398  137.7737  161.1250 N.ar    1  UNL1       -0.2445
      5 C         140.5623  138.0185  162.5257 C.ar    1  UNL1        0.1023
      6 C         141.5459  138.3666  163.6034 C.ar    1  UNL1        0.0145
      7 C         143.9906  138.8182  164.3580 C.3     1  UNL1        0.0527
      8 C         142.3490  142.4171  168.8694 C.3     1  UNL1        0.0310
      9 C         142.7594  141.5174  167.7416 C.ar    1  UNL1       -0.0219
     10 C         142.7852  140.0307  167.9394 C.ar    1  UNL1       -0.0046
     11 C         143.1956  139.1310  166.8116 C.ar    1  UNL1       -0.0043
     12 C         143.5802  139.7179  165.4858 C.ar    1  UNL1       -0.0178
     13 C         143.5544  141.2045  165.2880 C.ar    1  UNL1       -0.0043
     14 C         143.1440  142.1043  166.4158 C.ar    1  UNL1       -0.0046
     15 C         139.1011  137.9150  162.8488 C.3     1  UNL1        0.2508
     16 O         138.3871  139.0769  163.4734 O.3     1  UNL1       -0.4690
     17 C         138.6134  139.4071  164.9190 C.ar    1  UNL1        0.1391
     18 C         139.3570  140.6542  165.2959 C.ar    1  UNL1        0.0366
     19 C         139.5834  140.9845  166.7414 C.ar    1  UNL1       -0.0011
     20 C         139.0662  140.0676  167.8101 C.ar    1  UNL1       -0.0217
     21 C         139.2926  140.3979  169.2557 C.3     1  UNL1        0.0310
     22 C         138.3227  138.8206  167.4332 C.ar    1  UNL1       -0.0011
     23 C         138.0963  138.4904  165.9876 C.ar    1  UNL1        0.0366
@<TRIPOS>BOND
     1     8     9    1
     2     9    10   ar
     3    10    11   ar
     4    11    12   ar
     5    12     7    1
     6     7     1    1
     7     1     2   ar
     8     2     3   ar
     9     3     4   ar
    10     4     5   ar
    11     5    15    1
    12    15    16    1
    13    16    17    1
    14    17    18   ar
    15    18    19   ar
    16    19    20   ar
    17    20    21    1
    18    20    22   ar
    19    22    23   ar
    20     5     6   ar
    21    12    13   ar
    22    13    14   ar
    23    14     9   ar
    24     6     1   ar
    25    23    17   ar
@<TRIPOS>MOLECULE
*****
 23 25 0 0 0
SMALL
GASTEIGER

@<TRIPOS>ATOM
      1 C         141.0376  144.2593  163.6884 C.ar    1  UNL1       -0.0150
      2 C         140.9348  145.3944  162.7131 C.ar    1  UNL1        0.0167
      3 C         139.6181  145.7128  162.0690 C.ar    1  UNL1        0.0983
      4 N         138.4042  144.8963  162.4002 N.ar    1  UNL1       -0.2445
      5 C         138.5069  143.7613  163.3755 C.ar    1  UNL1        0.1023
      6 C         139.8237  143.4428  164.0196 C.ar    1  UNL1        0.0145
      7 C         142.3543  143.9408  164.3324 C.3     1  UNL1        0.0527
      8 C         143.3926  138.4327  166.4730 C.3     1  UNL1        0.0310
      9 C         143.1331  139.8097  165.9379 C.ar    1  UNL1       -0.0219
     10 C         142.7486  140.9177  166.8731 C.ar    1  UNL1       -0.0046
     11 C         142.4890  142.2947  166.3379 C.ar    1  UNL1       -0.0043
     12 C         142.6139  142.5638  164.8676 C.ar    1  UNL1       -0.0178
     13 C         142.9983  141.4559  163.9324 C.ar    1  UNL1       -0.0043
     14 C         143.2579  140.0788  164.4675 C.ar    1  UNL1       -0.0046
     15 C         137.2930  142.9448  163.7067 C.3     1  UNL1        0.2508
     16 O         137.0973  141.6002  163.0713 O.3     1  UNL1       -0.4690
     17 C         138.0224  140.4689  163.4097 C.ar    1  UNL1        0.1391
     18 C         138.5070  139.5476  162.3297 C.ar    1  UNL1        0.0366
     19 C         139.4320  138.4164  162.6682 C.ar    1  UNL1       -0.0011
     20 C         139.8724  138.2064  164.0867 C.ar    1  UNL1       -0.0217
     21 C         140.7974  137.0751  164.4251 C.3     1  UNL1        0.0310
     22 C         139.3877  139.1276  165.1666 C.ar    1  UNL1       -0.0011
     23 C         138.4627  140.2589  164.8281 C.ar    1  UNL1        0.0366
@<TRIPOS>BOND
     1     8     9    1
     2     9    10   ar
     3    10    11   ar
     4    11    12   ar
     5    12     7    1
     6     7     1    1
     7     1     2   ar
     8     2     3   ar
     9     3     4   ar
    10     4     5   ar
    11     5    15    1
    12    15    16    1
    13    16    17    1
    14    17    18   ar
    15    18    19   ar
    16    19    20   ar
    17    20    21    1
    18    20    22   ar
    19    22    23   ar
    20     5     6   ar
    21    12    13   ar
    22    13    14   ar
    23    14     9   ar
    24     6     1   ar
    25    23    17   ar
@<TRIPOS>MOLECULE
*****
 23 25 0 0 0
SMALL
GASTEIGER

@<TRIPOS>ATOM
      1 C         140.4952  141.3932  167.2900 C.ar    1  UNL1       -0.0150
      2 C         140.3515  141.4172  168.7829 C.ar    1  UNL1        0.0167
      3 C         139.4024  140.4736  169.4602 C.ar    1  UNL1        0.0983
      4 N         138.5970  139.5060  168.6447 N.ar    1  UNL1       -0.2445
      5 C         138.7407  139.4821  167.1518 C.ar    1  UNL1        0.1023
      6 C         139.6898  140.4257  166.4744 C.ar    1  UNL1        0.0145
      7 C         141.4443  142.3368  166.6127 C.3     1  UNL1        0.0527
      8 C         139.5065  145.8563  162.1564 C.3     1  UNL1        0.0310
      9 C         139.9910  144.9765  163.2705 C.ar    1  UNL1       -0.0219
     10 C         139.1185  144.7307  164.4656 C.ar    1  UNL1       -0.0046
     11 C         139.6030  143.8509  165.5797 C.ar    1  UNL1       -0.0043
     12 C         140.9599  143.2167  165.4986 C.ar    1  UNL1       -0.0178
     13 C         141.8323  143.4624  164.3035 C.ar    1  UNL1       -0.0043
     14 C         141.3479  144.3423  163.1894 C.ar    1  UNL1       -0.0046
     15 C         137.9353  138.5145  166.3362 C.3     1  UNL1        0.2508
     16 O         138.6047  137.3355  165.6945 O.3     1  UNL1       -0.4690
     17 C         139.4442  137.5265  164.4662 C.ar    1  UNL1        0.1391
     18 C         140.9390  137.4407  164.5587 C.ar    1  UNL1        0.0366
     19 C         141.7785  137.6317  163.3304 C.ar    1  UNL1       -0.0011
     20 C         141.1233  137.9085  162.0097 C.ar    1  UNL1       -0.0217
     21 C         141.9629  138.0995  160.7814 C.3     1  UNL1        0.0310
     22 C         139.6287  137.9943  161.9173 C.ar    1  UNL1       -0.0011
     23 C         138.7891  137.8033  163.1456 C.ar    1  UNL1        0.0366
@<TRIPOS>BOND
     1     8     9    1
     2     9    10   ar
     3    10    11   ar
     4    11    12   ar
     5    12     7    1
     6     7     1    1
     7     1     2   ar
     8     2     3   ar
     9     3     4   ar
    10     4     5   ar
    11     5    15    1
    12    15    16    1
    13    16    17    1
    14    17    18   ar
    15    18    19   ar
    16    19    20   ar
    17    20    21    1
    18    20    22   ar
    19    22    23   ar
    20     5     6   ar
    21    12    13   ar
    22    13    14   ar
    23    14     9   ar
    24     6     1   ar
    25    23    17   ar
@<TRIPOS>MOLECULE
*****
 23 25 0 0 0
SMALL
GASTEIGER

@<TRIPOS>ATOM
      1 C         142.6174  138.7146  163.9305 C.ar    1  UNL1       -0.0150
      2 C         143.3740  138.4036  162.6731 C.ar    1  UNL1        0.0167
      3 C         142.6524  137.8463  161.4821 C.ar    1  UNL1        0.0983
      4 N         141.1743  137.6000  161.5482 N.ar    1  UNL1       -0.2445
      5 C         140.4177  137.9110  162.8055 C.ar    1  UNL1        0.1023
      6 C         141.1392  138.4683  163.9967 C.ar    1  UNL1        0.0145
      7 C         143.3389  139.2719  165.1216 C.3     1  UNL1        0.0527
      8 C         140.5041  142.9988  168.8732 C.3     1  UNL1        0.0310
      9 C         141.2128  142.0670  167.9353 C.ar    1  UNL1       -0.0219
     10 C         141.5249  142.5062  166.5354 C.ar    1  UNL1       -0.0046
     11 C         142.2336  141.5744  165.5975 C.ar    1  UNL1       -0.0043
     12 C         142.6302  140.2036  166.0595 C.ar    1  UNL1       -0.0178
     13 C         142.3181  139.7645  167.4594 C.ar    1  UNL1       -0.0043
     14 C         141.6094  140.6962  168.3973 C.ar    1  UNL1       -0.0046
     15 C         138.9395  137.6647  162.8717 C.3     1  UNL1        0.2508
     16 O         137.9828  138.7025  162.3644 O.3     1  UNL1       -0.4690
     17 C         137.9962  140.0842  162.9481 C.ar    1  UNL1        0.1391
     18 C         137.7677  141.2742  162.0639 C.ar    1  UNL1        0.0366
     19 C         137.7812  142.6559  162.6476 C.ar    1  UNL1       -0.0011
     20 C         138.0231  142.8476  164.1156 C.ar    1  UNL1       -0.0217
     21 C         138.0366  144.2293  164.6993 C.3     1  UNL1        0.0310
     22 C         138.2516  141.6576  164.9997 C.ar    1  UNL1       -0.0011
     23 C         138.2381  140.2759  164.4160 C.ar    1  UNL1        0.0366
@<TRIPOS>BOND
     1     8     9    1
     2     9    10   ar
     3    10    11   ar
     4    11    12   ar
     5    12     7    1
     6     7     1    1
     7     1     2   ar
     8     2     3   ar
     9     3     4   ar
    10     4     5   ar
    11     5    15    1
    12    15    16    1
    13    16    17    1
    14    17    18   ar
    15    18    19   ar
    16    19    20   ar
    17    20    21    1
    18    20    22   ar
    19    22    23   ar
    20     5     6   ar
    21    12    13   ar
    22    13    14   ar
    23    14     9   ar
    24     6     1   ar
    25    23    17   ar
@<TRIPOS>MOLECULE
*****
 23 25 0 0 0
SMALL
GASTEIGER

@<TRIPOS>ATOM
      1 C         138.1865  140.6664  164.1938 C.ar    1  UNL1       -0.0150
      2 C         137.9775  139.9629  162.8855 C.ar    1  UNL1        0.0167
      3 C         137.6669  140.7542  161.6497 C.ar    1  UNL1        0.0983
      4 N         137.5653  142.2490  161.7221 N.ar    1  UNL1       -0.2445
      5 C         137.7742  142.9525  163.0302 C.ar    1  UNL1        0.1023
      6 C         138.0849  142.1612  164.2661 C.ar    1  UNL1        0.0145
      7 C         138.4971  139.8751  165.4296 C.3     1  UNL1        0.0527
      8 C         144.1157  138.0605  166.4968 C.3     1  UNL1        0.0310
      9 C         142.7111  138.5141  166.2300 C.ar    1  UNL1       -0.0219
     10 C         141.9352  137.9220  165.0910 C.ar    1  UNL1       -0.0046
     11 C         140.5306  138.3756  164.8242 C.ar    1  UNL1       -0.0043
     12 C         139.9018  139.4215  165.6964 C.ar    1  UNL1       -0.0178
     13 C         140.6776  140.0137  166.8354 C.ar    1  UNL1       -0.0043
     14 C         142.0823  139.5600  167.1022 C.ar    1  UNL1       -0.0046
     15 C         137.6726  144.4473  163.1026 C.3     1  UNL1        0.2508
     16 O         138.6718  145.3028  162.3817 O.3     1  UNL1       -0.4690
     17 C         140.1227  144.9218  162.3802 C.ar    1  UNL1        0.1391
     18 C         140.7448  144.3432  161.1440 C.ar    1  UNL1        0.0366
     19 C         142.1957  143.9622  161.1425 C.ar    1  UNL1       -0.0011
     20 C         143.0243  144.1600  162.3771 C.ar    1  UNL1       -0.0217
     21 C         144.4751  143.7790  162.3756 C.3     1  UNL1        0.0310
     22 C         142.4021  144.7386  163.6132 C.ar    1  UNL1       -0.0011
     23 C         140.9513  145.1195  163.6148 C.ar    1  UNL1        0.0366
@<TRIPOS>BOND
     1     8     9    1
     2     9    10   ar
     3    10    11   ar
     4    11    12   ar
     5    12     7    1
     6     7     1    1
     7     1     2   ar
     8     2     3   ar
     9     3     4   ar
    10     4     5   ar
    11     5    15    1
    12    15    16    1
    13    16    17    1
    14    17    18   ar
    15    18    19   ar
    16    19    20   ar
    17    20    21    1
    18    20    22   ar
    19    22    23   ar
    20     5     6   ar
    21    12    13   ar
    22    13    14   ar
    23    14     9   ar
    24     6     1   ar
    25    23    17   ar
@<TRIPOS>MOLECULE
*****
 23 25 0 0 0
SMALL
GASTEIGER

@<TRIPOS>ATOM
      1 C         141.5003  143.9463  163.7961 C.ar    1  UNL1       -0.0150
      2 C         142.5505  144.9788  164.0810 C.ar    1  UNL1        0.0167
      3 C         143.7799  145.0542  163.2250 C.ar    1  UNL1        0.0983
      4 N         143.9591  144.0972  162.0839 N.ar    1  UNL1       -0.2445
      5 C         142.9090  143.0648  161.7989 C.ar    1  UNL1        0.1023
      6 C         141.6795  142.9893  162.6550 C.ar    1  UNL1        0.0145
      7 C         140.2709  143.8709  164.6521 C.3     1  UNL1        0.0527
      8 C         138.1546  138.5354  166.3995 C.3     1  UNL1        0.0310
      9 C         138.6836  139.8693  165.9627 C.ar    1  UNL1       -0.0219
     10 C         138.0192  140.6083  164.8392 C.ar    1  UNL1       -0.0046
     11 C         138.5483  141.9421  164.4023 C.ar    1  UNL1       -0.0043
     12 C         139.7418  142.5370  165.0890 C.ar    1  UNL1       -0.0178
     13 C         140.4062  141.7980  166.2125 C.ar    1  UNL1       -0.0043
     14 C         139.8772  140.4641  166.6494 C.ar    1  UNL1       -0.0046
     15 C         143.0882  142.1077  160.6579 C.3     1  UNL1        0.2508
     16 O         143.6658  140.7457  160.9050 O.3     1  UNL1       -0.4690
     17 C         143.6248  140.1522  162.2820 C.ar    1  UNL1        0.1391
     18 C         144.8281  140.2414  163.1733 C.ar    1  UNL1        0.0366
     19 C         144.7871  139.6479  164.5503 C.ar    1  UNL1       -0.0011
     20 C         143.5428  138.9652  165.0360 C.ar    1  UNL1       -0.0217
     21 C         143.5018  138.3717  166.4130 C.3     1  UNL1        0.0310
     22 C         142.3397  138.8760  164.1447 C.ar    1  UNL1       -0.0011
     23 C         142.3807  139.4695  162.7677 C.ar    1  UNL1        0.0366
@<TRIPOS>BOND
     1     8     9    1
     2     9    10   ar
     3    10    11   ar
     4    11    12   ar
     5    12     7    1
     6     7     1    1
     7     1     2   ar
     8     2     3   ar
     9     3     4   ar
    10     4     5   ar
    11     5    15    1
    12    15    16    1
    13    16    17    1
    14    17    18   ar
    15    18    19   ar
    16    19    20   ar
    17    20    21    1
    18    20    22   ar
    19    22    23   ar
    20     5     6   ar
    21    12    13   ar
    22    13    14   ar
    23    14     9   ar
    24     6     1   ar
    25    23    17   ar
