@<TRIPOS>MOLECULE
*****
 36 39 0 0 0
SMALL
GASTEIGER

@<TRIPOS>ATOM
      1 C         139.5764  142.0884  163.7051 C.2     1  UNL1        0.1397
      2 C         139.5949  142.0013  162.2078 C.2     1  UNL1        0.1355
      3 N         140.4711  140.9926  161.5259 N.pl3   1  UNL1       -0.1998
      4 C         141.3288  140.0711  162.3414 C.2     1  UNL1        0.3442
      5 N         141.3103  140.1582  163.8387 N.2     1  UNL1       -0.0580
      6 C         140.4342  141.1668  164.5206 C.3     1  UNL1        0.2692
      7 H         140.4832  140.9354  160.5431 H       1  UNL1        0.2983
      8 C         140.4157  141.2539  166.0180 C.ar    1  UNL1        0.0371
      9 C         141.2865  142.2520  166.7219 C.ar    1  UNL1        0.0030
     10 C         141.2681  142.3392  168.2193 C.ar    1  UNL1        0.0295
     11 C         140.3789  141.4281  169.0127 C.ar    1  UNL1        0.1406
     12 F         140.3605  141.5153  170.5100 F       1  UNL1       -0.2042
     13 C         139.5082  140.4300  168.3087 C.ar    1  UNL1        0.0362
     14 C         139.5266  140.3429  166.8113 C.ar    1  UNL1        0.0372
     15 BR        138.6558  139.3448  166.1074 Br      1  UNL1       -0.0491
     16 C         142.2049  139.0624  161.6595 C.ar    1  UNL1        0.1931
     17 N         141.8819  138.3269  160.3927 N.ar    1  UNL1       -0.2297
     18 C         143.0353  137.4221  160.0750 C.ar    1  UNL1        0.1067
     19 C         144.0712  137.5983  161.1455 C.ar    1  UNL1        0.0577
     20 S         143.5580  138.6120  162.1247 S.2     1  UNL1       -0.0586
     21 C         138.7003  143.0971  164.3869 C.2     1  UNL1        0.3447
     22 O         137.2504  142.7936  164.6226 O.2     1  UNL1       -0.2450
     23 O         139.2740  144.4092  164.8331 O.3     1  UNL1       -0.4455
     24 C         141.7048  144.8860  164.0494 C.3     1  UNL1        0.0513
     25 C         140.2316  145.1492  163.9468 C.3     1  UNL1        0.2089
     26 C         138.7372  142.9229  161.3922 C.3     1  UNL1        0.1407
     27 N         138.9215  142.9996  159.9056 N.3     1  UNL1       -0.2585
     28 C         138.2663  141.9856  159.0153 C.3     1  UNL1        0.1052
     29 C         138.4507  142.0623  157.5286 C.3     1  UNL1        0.1594
     30 O         139.2901  143.1530  156.9323 O.3     1  UNL1       -0.3530
     31 C         139.9453  144.1670  157.8226 C.3     1  UNL1        0.1352
     32 C         140.7847  145.2577  157.2262 C.3     1  UNL1        0.0339
     33 C         139.7610  144.0903  159.3092 C.3     1  UNL1        0.1221
     34 C         140.4161  145.1043  160.1995 C.2     1  UNL1        0.0673
     35 O         141.8668  144.9645  160.5548 O.co2   1  UNL1       -0.5477
     36 O         139.6207  146.2580  160.7344 O.co2   1  UNL1       -0.5477
@<TRIPOS>UNITY_ATOM_ATTR
35 1
charge -1
@<TRIPOS>BOND
     1    24    25    1
     2    25    23    1
     3    23    21    1
     4    21    22    2
     5    21     1    1
     6     1     2    2
     7     2    26    1
     8    26    27    1
     9    27    28    1
    10    28    29    1
    11    29    30    1
    12    30    31    1
    13    31    32    1
    14    31    33    1
    15    33    34    1
    16    34    35   ar
    17    34    36   ar
    18     2     3    1
    19     3     4    1
    20     4    16    1
    21    16    17   ar
    22    17    18   ar
    23    18    19   ar
    24    19    20   ar
    25     4     5    2
    26     5     6    1
    27     6     8    1
    28     8     9   ar
    29     9    10   ar
    30    10    11   ar
    31    11    12    1
    32    11    13   ar
    33    13    14   ar
    34    14    15    1
    35     6     1    1
    36    14     8   ar
    37    33    27    1
    38    20    16   ar
    39     3     7    1
@<TRIPOS>MOLECULE
*****
 36 39 0 0 0
SMALL
GASTEIGER

@<TRIPOS>ATOM
      1 C         139.1665  141.4809  160.8413 C.2     1  UNL1        0.1397
      2 C         139.2999  140.8900  159.4691 C.2     1  UNL1        0.1355
      3 N         139.4545  141.7880  158.2776 N.pl3   1  UNL1       -0.1998
      4 C         139.4757  143.2768  158.4583 C.2     1  UNL1        0.3442
      5 N         139.3423  143.8678  159.8305 N.2     1  UNL1       -0.0580
      6 C         139.1877  142.9698  161.0220 C.3     1  UNL1        0.2692
      7 H         139.5420  141.4001  157.3770 H       1  UNL1        0.2983
      8 C         139.0543  143.5608  162.3943 C.ar    1  UNL1        0.0371
      9 C         137.6965  143.7324  163.0082 C.ar    1  UNL1        0.0030
     10 C         137.5631  144.3234  164.3804 C.ar    1  UNL1        0.0295
     11 C         138.7875  144.7427  165.1387 C.ar    1  UNL1        0.1406
     12 F         138.6541  145.3337  166.5109 F       1  UNL1       -0.2042
     13 C         140.1454  144.5711  164.5248 C.ar    1  UNL1        0.0362
     14 C         140.2787  143.9801  163.1525 C.ar    1  UNL1        0.0372
     15 BR        141.6365  143.8084  162.5386 Br      1  UNL1       -0.0491
     16 C         139.6302  144.1748  157.2667 C.ar    1  UNL1        0.1931
     17 N         139.1725  143.8736  155.8704 N.ar    1  UNL1       -0.2297
     18 C         139.5290  145.0443  155.0030 C.ar    1  UNL1        0.1067
     19 C         140.2071  146.0691  155.8633 C.ar    1  UNL1        0.0577
     20 S         140.2696  145.5317  157.2623 S.2     1  UNL1       -0.0586
     21 C         139.0120  140.5829  162.0329 C.2     1  UNL1        0.3447
     22 O         137.6764  139.9768  162.3470 O.2     1  UNL1       -0.2450
     23 O         140.1930  140.2911  162.9103 O.3     1  UNL1       -0.4455
     24 C         139.4696  140.9939  165.3046 C.3     1  UNL1        0.0513
     25 C         139.9871  139.9526  164.3570 C.3     1  UNL1        0.2089
     26 C         139.2787  139.4010  159.2884 C.3     1  UNL1        0.1407
     27 N         140.5407  138.6701  158.9373 N.3     1  UNL1       -0.2585
     28 C         141.5975  138.4548  159.9798 C.3     1  UNL1        0.1052
     29 C         142.8594  137.7238  159.6287 C.3     1  UNL1        0.1594
     30 O         143.0645  137.2082  158.2351 O.3     1  UNL1       -0.3530
     31 C         142.0077  137.4235  157.1926 C.3     1  UNL1        0.1352
     32 C         142.2128  136.9079  155.7991 C.3     1  UNL1        0.0339
     33 C         140.7458  138.1544  157.5437 C.3     1  UNL1        0.1221
     34 C         139.6890  138.3698  156.5012 C.2     1  UNL1        0.0673
     35 O         138.7734  137.2451  156.1180 O.co2   1  UNL1       -0.5477
     36 O         139.5478  139.7097  155.8420 O.co2   1  UNL1       -0.5477
@<TRIPOS>UNITY_ATOM_ATTR
35 1
charge -1
@<TRIPOS>BOND
     1    24    25    1
     2    25    23    1
     3    23    21    1
     4    21    22    2
     5    21     1    1
     6     1     2    2
     7     2    26    1
     8    26    27    1
     9    27    28    1
    10    28    29    1
    11    29    30    1
    12    30    31    1
    13    31    32    1
    14    31    33    1
    15    33    34    1
    16    34    35   ar
    17    34    36   ar
    18     2     3    1
    19     3     4    1
    20     4    16    1
    21    16    17   ar
    22    17    18   ar
    23    18    19   ar
    24    19    20   ar
    25     4     5    2
    26     5     6    1
    27     6     8    1
    28     8     9   ar
    29     9    10   ar
    30    10    11   ar
    31    11    12    1
    32    11    13   ar
    33    13    14   ar
    34    14    15    1
    35     6     1    1
    36    14     8   ar
    37    33    27    1
    38    20    16   ar
    39     3     7    1
@<TRIPOS>MOLECULE
*****
 36 39 0 0 0
SMALL
GASTEIGER

@<TRIPOS>ATOM
      1 C         142.3469  143.2628  160.3346 C.2     1  UNL1        0.1397
      2 C         143.2850  143.2164  159.1651 C.2     1  UNL1        0.1355
      3 N         142.9375  143.9363  157.8958 N.pl3   1  UNL1       -0.1998
      4 C         141.6519  144.7026  157.7960 C.2     1  UNL1        0.3442
      5 N         140.7138  144.7490  158.9655 N.2     1  UNL1       -0.0580
      6 C         141.0613  144.0291  160.2348 C.3     1  UNL1        0.2692
      7 H         143.5532  143.9058  157.1282 H       1  UNL1        0.2983
      8 C         140.1231  144.0756  161.4043 C.ar    1  UNL1        0.0371
      9 C         140.3601  145.0527  162.5175 C.ar    1  UNL1        0.0030
     10 C         139.4220  145.0992  163.6870 C.ar    1  UNL1        0.0295
     11 C         138.2468  144.1685  163.7433 C.ar    1  UNL1        0.1406
     12 F         137.3087  144.2150  164.9128 F       1  UNL1       -0.2042
     13 C         138.0099  143.1914  162.6302 C.ar    1  UNL1        0.0362
     14 C         138.9481  143.1450  161.4606 C.ar    1  UNL1        0.0372
     15 BR        138.7112  142.1679  160.3475 Br      1  UNL1       -0.0491
     16 C         141.3044  145.4225  156.5268 C.ar    1  UNL1        0.1931
     17 N         140.3155  146.5420  156.3905 N.ar    1  UNL1       -0.2297
     18 C         140.2847  146.9607  154.9504 C.ar    1  UNL1        0.1067
     19 C         141.2547  146.0999  154.1967 C.ar    1  UNL1        0.0577
     20 S         141.8849  145.1492  155.1709 S.2     1  UNL1       -0.0586
     21 C         142.6944  142.5430  161.6038 C.2     1  UNL1        0.3447
     22 O         141.9294  141.3163  162.0039 O.2     1  UNL1       -0.2450
     23 O         143.8068  143.0497  162.4730 O.3     1  UNL1       -0.4455
     24 C         143.6486  145.0955  164.0667 C.3     1  UNL1        0.0513
     25 C         143.9579  144.5223  162.7154 C.3     1  UNL1        0.2089
     26 C         144.5707  142.4501  159.2648 C.3     1  UNL1        0.1407
     27 N         145.3182  142.0741  158.0199 N.3     1  UNL1       -0.2585
     28 C         146.5649  142.8169  157.6404 C.3     1  UNL1        0.1052
     29 C         147.3124  142.4409  156.3955 C.3     1  UNL1        0.1594
     30 O         146.8132  141.3221  155.5300 O.3     1  UNL1       -0.3530
     31 C         145.5665  140.5793  155.9095 C.3     1  UNL1        0.1352
     32 C         145.0674  139.4605  155.0440 C.3     1  UNL1        0.0339
     33 C         144.8190  140.9552  157.1544 C.3     1  UNL1        0.1221
     34 C         143.5723  140.2124  157.5338 C.2     1  UNL1        0.0673
     35 O         142.2295  140.7450  157.1296 O.co2   1  UNL1       -0.5477
     36 O         143.6684  138.9370  158.3174 O.co2   1  UNL1       -0.5477
@<TRIPOS>UNITY_ATOM_ATTR
35 1
charge -1
@<TRIPOS>BOND
     1    24    25    1
     2    25    23    1
     3    23    21    1
     4    21    22    2
     5    21     1    1
     6     1     2    2
     7     2    26    1
     8    26    27    1
     9    27    28    1
    10    28    29    1
    11    29    30    1
    12    30    31    1
    13    31    32    1
    14    31    33    1
    15    33    34    1
    16    34    35   ar
    17    34    36   ar
    18     2     3    1
    19     3     4    1
    20     4    16    1
    21    16    17   ar
    22    17    18   ar
    23    18    19   ar
    24    19    20   ar
    25     4     5    2
    26     5     6    1
    27     6     8    1
    28     8     9   ar
    29     9    10   ar
    30    10    11   ar
    31    11    12    1
    32    11    13   ar
    33    13    14   ar
    34    14    15    1
    35     6     1    1
    36    14     8   ar
    37    33    27    1
    38    20    16   ar
    39     3     7    1
@<TRIPOS>MOLECULE
*****
 36 39 0 0 0
SMALL
GASTEIGER

@<TRIPOS>ATOM
      1 C         142.8750  140.3140  159.4070 C.2     1  UNL1        0.1397
      2 C         143.2496  139.3095  158.3580 C.2     1  UNL1        0.1355
      3 N         144.2564  139.6652  157.3045 N.pl3   1  UNL1       -0.1998
      4 C         144.8886  141.0254  157.3001 C.2     1  UNL1        0.3442
      5 N         144.5140  142.0299  158.3491 N.2     1  UNL1       -0.0580
      6 C         143.5072  141.6743  159.4026 C.3     1  UNL1        0.2692
      7 H         144.5023  139.0058  156.6160 H       1  UNL1        0.2983
      8 C         143.1325  142.6789  160.4516 C.ar    1  UNL1        0.0371
      9 C         143.9383  142.7824  161.7126 C.ar    1  UNL1        0.0030
     10 C         143.5637  143.7870  162.7616 C.ar    1  UNL1        0.0295
     11 C         142.3834  144.6881  162.5497 C.ar    1  UNL1        0.1406
     12 F         142.0088  145.6926  163.5988 F       1  UNL1       -0.2042
     13 C         141.5776  144.5846  161.2887 C.ar    1  UNL1        0.0362
     14 C         141.9522  143.5799  160.2397 C.ar    1  UNL1        0.0372
     15 BR        141.1465  143.4764  158.9787 Br      1  UNL1       -0.0491
     16 C         145.8955  141.3811  156.2466 C.ar    1  UNL1        0.1931
     17 N         147.1155  142.2311  156.4442 N.ar    1  UNL1       -0.2297
     18 C         147.8331  142.3246  155.1303 C.ar    1  UNL1        0.1067
     19 C         147.0566  141.5322  154.1207 C.ar    1  UNL1        0.0577
     20 S         145.8591  140.9492  154.8106 S.2     1  UNL1       -0.0586
     21 C         141.8681  139.9584  160.4604 C.2     1  UNL1        0.3447
     22 O         140.4018  140.0533  160.1590 O.2     1  UNL1       -0.2450
     23 O         142.3276  139.5077  161.8153 O.3     1  UNL1       -0.4455
     24 C         144.4771  139.4165  163.2718 C.3     1  UNL1        0.0513
     25 C         143.7433  139.0541  162.0147 C.3     1  UNL1        0.2089
     26 C         142.6174  137.9492  158.3624 C.3     1  UNL1        0.1407
     27 N         141.7123  137.5392  157.2387 N.3     1  UNL1       -0.2585
     28 C         140.2799  137.9842  157.2288 C.3     1  UNL1        0.1052
     29 C         139.3748  137.5741  156.1050 C.3     1  UNL1        0.1594
     30 O         139.9022  136.7190  154.9912 O.3     1  UNL1       -0.3530
     31 C         141.3347  136.2740  155.0011 C.3     1  UNL1        0.1352
     32 C         141.8621  135.4190  153.8872 C.3     1  UNL1        0.0339
     33 C         142.2397  136.6841  156.1247 C.3     1  UNL1        0.1221
     34 C         143.6721  136.2390  156.1346 C.2     1  UNL1        0.0673
     35 O         144.0298  134.8735  156.6421 O.co2   1  UNL1       -0.5477
     36 O         144.7469  137.1595  155.6370 O.co2   1  UNL1       -0.5477
@<TRIPOS>UNITY_ATOM_ATTR
35 1
charge -1
@<TRIPOS>BOND
     1    24    25    1
     2    25    23    1
     3    23    21    1
     4    21    22    2
     5    21     1    1
     6     1     2    2
     7     2    26    1
     8    26    27    1
     9    27    28    1
    10    28    29    1
    11    29    30    1
    12    30    31    1
    13    31    32    1
    14    31    33    1
    15    33    34    1
    16    34    35   ar
    17    34    36   ar
    18     2     3    1
    19     3     4    1
    20     4    16    1
    21    16    17   ar
    22    17    18   ar
    23    18    19   ar
    24    19    20   ar
    25     4     5    2
    26     5     6    1
    27     6     8    1
    28     8     9   ar
    29     9    10   ar
    30    10    11   ar
    31    11    12    1
    32    11    13   ar
    33    13    14   ar
    34    14    15    1
    35     6     1    1
    36    14     8   ar
    37    33    27    1
    38    20    16   ar
    39     3     7    1
@<TRIPOS>MOLECULE
*****
 36 39 0 0 0
SMALL
GASTEIGER

@<TRIPOS>ATOM
      1 C         140.9876  140.0193  164.3038 C.2     1  UNL1        0.1397
      2 C         140.9034  140.0573  162.8067 C.2     1  UNL1        0.1355
      3 N         140.6785  141.3616  162.1010 N.pl3   1  UNL1       -0.1998
      4 C         140.5378  142.6281  162.8923 C.2     1  UNL1        0.3442
      5 N         140.6221  142.5901  164.3894 N.2     1  UNL1       -0.0580
      6 C         140.8470  141.2858  165.0952 C.3     1  UNL1        0.2692
      7 H         140.6232  141.3865  161.1183 H       1  UNL1        0.2983
      8 C         140.9312  141.2479  166.5924 C.ar    1  UNL1        0.0371
      9 C         139.7633  140.7596  167.3972 C.ar    1  UNL1        0.0030
     10 C         139.8475  140.7217  168.8943 C.ar    1  UNL1        0.0295
     11 C         141.0996  141.1721  169.5867 C.ar    1  UNL1        0.1406
     12 F         141.1838  141.1342  171.0839 F       1  UNL1       -0.2042
     13 C         142.2675  141.6604  168.7820 C.ar    1  UNL1        0.0362
     14 C         142.1833  141.6983  167.2848 C.ar    1  UNL1        0.0372
     15 BR        143.3511  142.1866  166.4800 Br      1  UNL1       -0.0491
     16 C         140.3129  143.9324  162.1866 C.ar    1  UNL1        0.1931
     17 N         140.6532  144.2313  160.7566 N.ar    1  UNL1       -0.2297
     18 C         140.2589  145.6505  160.4731 C.ar    1  UNL1        0.1067
     19 C         139.6749  146.2288  161.7279 C.ar    1  UNL1        0.0577
     20 S         139.7083  145.1669  162.7869 S.2     1  UNL1       -0.0586
     21 C         141.2125  138.7150  165.0096 C.2     1  UNL1        0.3447
     22 O         142.5532  138.4072  165.6076 O.2     1  UNL1       -0.2450
     23 O         140.0967  137.7184  165.1173 O.3     1  UNL1       -0.4455
     24 C         137.8870  137.9252  166.4681 C.3     1  UNL1        0.0513
     25 C         138.6767  138.1906  165.2206 C.3     1  UNL1        0.2089
     26 C         141.0440  138.7908  162.0152 C.3     1  UNL1        0.1407
     27 N         140.9795  138.8315  160.5172 N.3     1  UNL1       -0.2585
     28 C         139.7078  138.4655  159.8110 C.3     1  UNL1        0.1052
     29 C         139.6433  138.5062  158.3129 C.3     1  UNL1        0.1594
     30 O         140.8506  138.9129  157.5211 O.3     1  UNL1       -0.3530
     31 C         142.1223  139.2788  158.2272 C.3     1  UNL1        0.1352
     32 C         143.3296  139.6855  157.4354 C.3     1  UNL1        0.0339
     33 C         142.1868  139.2382  159.7253 C.3     1  UNL1        0.1221
     34 C         143.4586  139.6041  160.4314 C.2     1  UNL1        0.0673
     35 O         143.6778  141.0122  160.9001 O.co2   1  UNL1       -0.5477
     36 O         144.5112  138.5622  160.6689 O.co2   1  UNL1       -0.5477
@<TRIPOS>UNITY_ATOM_ATTR
35 1
charge -1
@<TRIPOS>BOND
     1    24    25    1
     2    25    23    1
     3    23    21    1
     4    21    22    2
     5    21     1    1
     6     1     2    2
     7     2    26    1
     8    26    27    1
     9    27    28    1
    10    28    29    1
    11    29    30    1
    12    30    31    1
    13    31    32    1
    14    31    33    1
    15    33    34    1
    16    34    35   ar
    17    34    36   ar
    18     2     3    1
    19     3     4    1
    20     4    16    1
    21    16    17   ar
    22    17    18   ar
    23    18    19   ar
    24    19    20   ar
    25     4     5    2
    26     5     6    1
    27     6     8    1
    28     8     9   ar
    29     9    10   ar
    30    10    11   ar
    31    11    12    1
    32    11    13   ar
    33    13    14   ar
    34    14    15    1
    35     6     1    1
    36    14     8   ar
    37    33    27    1
    38    20    16   ar
    39     3     7    1
@<TRIPOS>MOLECULE
*****
 36 39 0 0 0
SMALL
GASTEIGER

@<TRIPOS>ATOM
      1 C         140.1310  139.8315  164.1156 C.2     1  UNL1        0.1397
      2 C         140.0015  139.9968  162.6304 C.2     1  UNL1        0.1355
      3 N         139.9561  141.3706  162.0298 N.pl3   1  UNL1       -0.1998
      4 C         140.0402  142.5790  162.9144 C.2     1  UNL1        0.3442
      5 N         140.1696  142.4137  164.3996 N.2     1  UNL1       -0.0580
      6 C         140.2150  141.0400  165.0002 C.3     1  UNL1        0.2692
      7 H         139.8712  141.4790  161.0550 H       1  UNL1        0.2983
      8 C         140.3445  140.8747  166.4855 C.ar    1  UNL1        0.0371
      9 C         139.2377  140.2321  167.2679 C.ar    1  UNL1        0.0030
     10 C         139.3671  140.0668  168.7531 C.ar    1  UNL1        0.0295
     11 C         140.6033  140.5441  169.4560 C.ar    1  UNL1        0.1406
     12 F         140.7327  140.3789  170.9412 F       1  UNL1       -0.2042
     13 C         141.7101  141.1867  168.6736 C.ar    1  UNL1        0.0362
     14 C         141.5806  141.3520  167.1883 C.ar    1  UNL1        0.0372
     15 BR        142.6874  141.9946  166.4059 Br      1  UNL1       -0.0491
     16 C         139.9948  143.9528  162.3138 C.ar    1  UNL1        0.1931
     17 N         139.3967  145.1732  162.9484 N.ar    1  UNL1       -0.2297
     18 C         139.5718  146.3220  162.0000 C.ar    1  UNL1        0.1067
     19 C         140.2780  145.8116  160.7790 C.ar    1  UNL1        0.0577
     20 S         140.5395  144.3473  160.9730 S.2     1  UNL1       -0.0586
     21 C         140.1764  138.4578  164.7162 C.2     1  UNL1        0.3447
     22 O         138.9039  137.6981  164.9479 O.2     1  UNL1       -0.2450
     23 O         141.4942  137.8437  165.0851 O.3     1  UNL1       -0.4455
     24 C         143.9027  138.5477  165.7585 C.3     1  UNL1        0.0513
     25 C         142.7715  138.5657  164.7735 C.3     1  UNL1        0.2089
     26 C         139.9175  138.7883  161.7457 C.3     1  UNL1        0.1407
     27 N         141.0203  138.4928  160.7729 N.3     1  UNL1       -0.2585
     28 C         142.2027  137.6771  161.2047 C.3     1  UNL1        0.1052
     29 C         143.3055  137.3816  160.2317 C.3     1  UNL1        0.1594
     30 O         143.2259  137.9019  158.8272 O.3     1  UNL1       -0.3530
     31 C         142.0435  138.7176  158.3954 C.3     1  UNL1        0.1352
     32 C         141.9639  139.2379  156.9908 C.3     1  UNL1        0.0339
     33 C         140.9407  139.0131  159.3682 C.3     1  UNL1        0.1221
     34 C         139.7583  139.8289  158.9365 C.2     1  UNL1        0.0673
     35 O         138.6023  139.1672  158.2465 O.co2   1  UNL1       -0.5477
     36 O         139.7318  141.3062  159.1946 O.co2   1  UNL1       -0.5477
@<TRIPOS>UNITY_ATOM_ATTR
35 1
charge -1
@<TRIPOS>BOND
     1    24    25    1
     2    25    23    1
     3    23    21    1
     4    21    22    2
     5    21     1    1
     6     1     2    2
     7     2    26    1
     8    26    27    1
     9    27    28    1
    10    28    29    1
    11    29    30    1
    12    30    31    1
    13    31    32    1
    14    31    33    1
    15    33    34    1
    16    34    35   ar
    17    34    36   ar
    18     2     3    1
    19     3     4    1
    20     4    16    1
    21    16    17   ar
    22    17    18   ar
    23    18    19   ar
    24    19    20   ar
    25     4     5    2
    26     5     6    1
    27     6     8    1
    28     8     9   ar
    29     9    10   ar
    30    10    11   ar
    31    11    12    1
    32    11    13   ar
    33    13    14   ar
    34    14    15    1
    35     6     1    1
    36    14     8   ar
    37    33    27    1
    38    20    16   ar
    39     3     7    1
@<TRIPOS>MOLECULE
*****
 36 39 0 0 0
SMALL
GASTEIGER

@<TRIPOS>ATOM
      1 C         140.6879  141.6366  160.8930 C.2     1  UNL1        0.1397
      2 C         140.9970  140.8966  159.6255 C.2     1  UNL1        0.1355
      3 N         140.0078  140.8946  158.4979 N.pl3   1  UNL1       -0.1998
      4 C         138.7095  141.6326  158.6378 C.2     1  UNL1        0.3442
      5 N         138.4004  142.3726  159.9054 N.2     1  UNL1       -0.0580
      6 C         139.3896  142.3746  161.0330 C.3     1  UNL1        0.2692
      7 H         140.2108  140.4089  157.6659 H       1  UNL1        0.2983
      8 C         139.0804  143.1147  162.3006 C.ar    1  UNL1        0.0371
      9 C         139.6413  144.4879  162.5232 C.ar    1  UNL1        0.0030
     10 C         139.3322  145.2280  163.7908 C.ar    1  UNL1        0.0295
     11 C         138.4620  144.5948  164.8358 C.ar    1  UNL1        0.1406
     12 F         138.1529  145.3348  166.1033 F       1  UNL1       -0.2042
     13 C         137.9011  143.2215  164.6132 C.ar    1  UNL1        0.0362
     14 C         138.2103  142.4815  163.3456 C.ar    1  UNL1        0.0372
     15 BR        137.6494  141.1082  163.1230 Br      1  UNL1       -0.0491
     16 C         137.7203  141.6306  157.5102 C.ar    1  UNL1        0.1931
     17 N         136.7267  140.5475  157.2109 N.ar    1  UNL1       -0.2297
     18 C         135.9434  140.9589  155.9996 C.ar    1  UNL1        0.1067
     19 C         136.4528  142.2963  155.5504 C.ar    1  UNL1        0.0577
     20 S         137.5510  142.7114  156.4840 S.2     1  UNL1       -0.0586
     21 C         141.6771  141.6386  162.0206 C.2     1  UNL1        0.3447
     22 O         141.6342  140.5559  163.0579 O.2     1  UNL1       -0.2450
     23 O         142.7092  142.7232  162.1110 O.3     1  UNL1       -0.4455
     24 C         143.2756  144.8601  163.4760 C.3     1  UNL1        0.0513
     25 C         142.9838  143.3895  163.4265 C.3     1  UNL1        0.2089
     26 C         142.2954  140.1585  159.4854 C.3     1  UNL1        0.1407
     27 N         143.3677  140.6919  158.5823 N.3     1  UNL1       -0.2585
     28 C         144.1735  141.8865  158.9988 C.3     1  UNL1        0.1052
     29 C         145.2458  142.4199  158.0956 C.3     1  UNL1        0.1594
     30 O         145.5123  141.7586  156.7759 O.3     1  UNL1       -0.3530
     31 C         144.7065  140.5640  156.3594 C.3     1  UNL1        0.1352
     32 C         144.9730  139.9027  155.0397 C.3     1  UNL1        0.0339
     33 C         143.6342  140.0306  157.2625 C.3     1  UNL1        0.1221
     34 C         142.8284  138.8360  156.8460 C.2     1  UNL1        0.0673
     35 O         143.3930  137.4560  157.0107 O.co2   1  UNL1       -0.5477
     36 O         141.4581  139.0212  156.2647 O.co2   1  UNL1       -0.5477
@<TRIPOS>UNITY_ATOM_ATTR
35 1
charge -1
@<TRIPOS>BOND
     1    24    25    1
     2    25    23    1
     3    23    21    1
     4    21    22    2
     5    21     1    1
     6     1     2    2
     7     2    26    1
     8    26    27    1
     9    27    28    1
    10    28    29    1
    11    29    30    1
    12    30    31    1
    13    31    32    1
    14    31    33    1
    15    33    34    1
    16    34    35   ar
    17    34    36   ar
    18     2     3    1
    19     3     4    1
    20     4    16    1
    21    16    17   ar
    22    17    18   ar
    23    18    19   ar
    24    19    20   ar
    25     4     5    2
    26     5     6    1
    27     6     8    1
    28     8     9   ar
    29     9    10   ar
    30    10    11   ar
    31    11    12    1
    32    11    13   ar
    33    13    14   ar
    34    14    15    1
    35     6     1    1
    36    14     8   ar
    37    33    27    1
    38    20    16   ar
    39     3     7    1
@<TRIPOS>MOLECULE
*****
 36 39 0 0 0
SMALL
GASTEIGER

@<TRIPOS>ATOM
      1 C         141.7667  143.0656  160.4139 C.2     1  UNL1        0.1397
      2 C         142.6066  142.9877  159.1736 C.2     1  UNL1        0.1355
      3 N         142.2590  143.8248  157.9785 N.pl3   1  UNL1       -0.1998
      4 C         141.0713  144.7399  158.0237 C.2     1  UNL1        0.3442
      5 N         140.2313  144.8178  159.2639 N.2     1  UNL1       -0.0580
      6 C         140.5790  143.9806  160.4590 C.3     1  UNL1        0.2692
      7 H         142.8103  143.7737  157.1644 H       1  UNL1        0.2983
      8 C         139.7390  144.0586  161.6994 C.ar    1  UNL1        0.0371
      9 C         140.0742  145.0534  162.7709 C.ar    1  UNL1        0.0030
     10 C         139.2342  145.1314  164.0111 C.ar    1  UNL1        0.0295
     11 C         138.0590  144.2145  164.1800 C.ar    1  UNL1        0.1406
     12 F         137.2190  144.2925  165.4203 F       1  UNL1       -0.2042
     13 C         137.7238  143.2198  163.1085 C.ar    1  UNL1        0.0362
     14 C         138.5639  143.1418  161.8682 C.ar    1  UNL1        0.0372
     15 BR        138.2287  142.1470  160.7967 Br      1  UNL1       -0.0491
     16 C         140.7236  145.5771  156.8285 C.ar    1  UNL1        0.1931
     17 N         141.3797  145.5063  155.4815 N.ar    1  UNL1       -0.2297
     18 C         140.7204  146.5175  154.5911 C.ar    1  UNL1        0.1067
     19 C         139.6568  147.2132  155.3878 C.ar    1  UNL1        0.0577
     20 S         139.6588  146.6319  156.7706 S.2     1  UNL1       -0.0586
     21 C         142.1144  142.2284  161.6090 C.2     1  UNL1        0.3447
     22 O         141.5609  140.8404  161.7390 O.2     1  UNL1       -0.2450
     23 O         143.0156  142.7793  162.6740 O.3     1  UNL1       -0.4455
     24 C         143.7255  145.0986  163.6052 C.3     1  UNL1        0.0513
     25 C         143.6819  144.1089  162.4788 C.3     1  UNL1        0.2089
     26 C         143.7944  142.0725  159.1284 C.3     1  UNL1        0.1407
     27 N         143.7393  140.8117  158.3177 N.3     1  UNL1       -0.2585
     28 C         143.0378  139.6017  158.8597 C.3     1  UNL1        0.1052
     29 C         142.9827  138.3407  158.0490 C.3     1  UNL1        0.1594
     30 O         143.6291  138.2899  156.6964 O.3     1  UNL1       -0.3530
     31 C         144.3305  139.5000  156.1544 C.3     1  UNL1        0.1352
     32 C         144.9769  139.4491  154.8018 C.3     1  UNL1        0.0339
     33 C         144.3856  140.7608  156.9651 C.3     1  UNL1        0.1221
     34 C         145.0871  141.9709  156.4231 C.2     1  UNL1        0.0673
     35 O         144.3126  143.0134  155.6726 O.co2   1  UNL1       -0.5477
     36 O         146.5631  142.1383  156.6316 O.co2   1  UNL1       -0.5477
@<TRIPOS>UNITY_ATOM_ATTR
35 1
charge -1
@<TRIPOS>BOND
     1    24    25    1
     2    25    23    1
     3    23    21    1
     4    21    22    2
     5    21     1    1
     6     1     2    2
     7     2    26    1
     8    26    27    1
     9    27    28    1
    10    28    29    1
    11    29    30    1
    12    30    31    1
    13    31    32    1
    14    31    33    1
    15    33    34    1
    16    34    35   ar
    17    34    36   ar
    18     2     3    1
    19     3     4    1
    20     4    16    1
    21    16    17   ar
    22    17    18   ar
    23    18    19   ar
    24    19    20   ar
    25     4     5    2
    26     5     6    1
    27     6     8    1
    28     8     9   ar
    29     9    10   ar
    30    10    11   ar
    31    11    12    1
    32    11    13   ar
    33    13    14   ar
    34    14    15    1
    35     6     1    1
    36    14     8   ar
    37    33    27    1
    38    20    16   ar
    39     3     7    1
@<TRIPOS>MOLECULE
*****
 36 39 0 0 0
SMALL
GASTEIGER

@<TRIPOS>ATOM
      1 C         139.2903  140.9197  162.5050 C.2     1  UNL1        0.1397
      2 C         140.0448  141.7476  161.5074 C.2     1  UNL1        0.1355
      3 N         141.5236  141.9455  161.6625 N.pl3   1  UNL1       -0.1998
      4 C         142.2479  141.3155  162.8151 C.2     1  UNL1        0.3442
      5 N         141.4933  140.4876  163.8126 N.2     1  UNL1       -0.0580
      6 C         140.0145  140.2896  163.6575 C.3     1  UNL1        0.2692
      7 H         142.0188  142.4890  161.0077 H       1  UNL1        0.2983
      8 C         139.2600  139.4616  164.6552 C.ar    1  UNL1        0.0371
      9 C         138.6323  140.1152  165.8505 C.ar    1  UNL1        0.0030
     10 C         137.8778  139.2872  166.8481 C.ar    1  UNL1        0.0295
     11 C         137.7510  137.8057  166.6503 C.ar    1  UNL1        0.1406
     12 F         136.9965  136.9778  167.6479 F       1  UNL1       -0.2042
     13 C         138.3786  137.1522  165.4550 C.ar    1  UNL1        0.0362
     14 C         139.1332  137.9802  164.4574 C.ar    1  UNL1        0.0372
     15 BR        139.7608  137.3267  163.2620 Br      1  UNL1       -0.0491
     16 C         143.7266  141.5135  162.9701 C.ar    1  UNL1        0.1931
     17 N         144.5528  141.0977  164.1510 N.ar    1  UNL1       -0.2297
     18 C         145.9757  141.4892  163.8823 C.ar    1  UNL1        0.1067
     19 C         146.0289  142.1469  162.5352 C.ar    1  UNL1        0.0577
     20 S         144.6389  142.1619  161.9715 S.2     1  UNL1       -0.0586
     21 C         137.8115  140.7217  162.3499 C.2     1  UNL1        0.3447
     22 O         137.2884  139.5282  161.6072 O.2     1  UNL1       -0.2450
     23 O         136.8559  141.7173  162.9376 O.3     1  UNL1       -0.4455
     24 C         137.7576  143.4329  164.6679 C.3     1  UNL1        0.0513
     25 C         137.3260  143.1025  163.2698 C.3     1  UNL1        0.2089
     26 C         139.3206  142.3777  160.3548 C.3     1  UNL1        0.1407
     27 N         140.0495  142.6584  159.0742 N.3     1  UNL1       -0.2585
     28 C         140.0501  141.6402  157.9728 C.3     1  UNL1        0.1052
     29 C         140.7791  141.9210  156.6922 C.3     1  UNL1        0.1594
     30 O         141.5074  143.2200  156.5131 O.3     1  UNL1       -0.3530
     31 C         141.5068  144.2383  157.6145 C.3     1  UNL1        0.1352
     32 C         142.2351  145.5373  157.4355 C.3     1  UNL1        0.0339
     33 C         140.7779  143.9575  158.8951 C.3     1  UNL1        0.1221
     34 C         140.7773  144.9757  159.9965 C.2     1  UNL1        0.0673
     35 O         141.8796  144.9808  161.0139 O.co2   1  UNL1       -0.5477
     36 O         139.6744  145.9889  160.0807 O.co2   1  UNL1       -0.5477
@<TRIPOS>UNITY_ATOM_ATTR
35 1
charge -1
@<TRIPOS>BOND
     1    24    25    1
     2    25    23    1
     3    23    21    1
     4    21    22    2
     5    21     1    1
     6     1     2    2
     7     2    26    1
     8    26    27    1
     9    27    28    1
    10    28    29    1
    11    29    30    1
    12    30    31    1
    13    31    32    1
    14    31    33    1
    15    33    34    1
    16    34    35   ar
    17    34    36   ar
    18     2     3    1
    19     3     4    1
    20     4    16    1
    21    16    17   ar
    22    17    18   ar
    23    18    19   ar
    24    19    20   ar
    25     4     5    2
    26     5     6    1
    27     6     8    1
    28     8     9   ar
    29     9    10   ar
    30    10    11   ar
    31    11    12    1
    32    11    13   ar
    33    13    14   ar
    34    14    15    1
    35     6     1    1
    36    14     8   ar
    37    33    27    1
    38    20    16   ar
    39     3     7    1
