@<TRIPOS>MOLECULE
*****
 30 34 0 0 0
SMALL
GASTEIGER

@<TRIPOS>ATOM
      1 N         141.8397  138.5001  158.7301 N.pl3   1  UNL1       -0.2781
      2 C         140.3947  138.8904  158.6325 C.3     1  UNL1        0.0954
      3 C         139.9905  139.5026  159.9408 C.3     1  UNL1        0.0430
      4 C         138.8476  140.1222  160.6891 C.3     1  UNL1        0.0955
      5 N         139.3365  140.4933  162.0578 N.am    1  UNL1       -0.2759
      6 C         138.5232  141.1409  163.1389 C.2     1  UNL1        0.2502
      7 O         137.0813  141.4750  162.8948 O.2     1  UNL1       -0.2699
      8 C         140.7816  140.1030  162.1554 C.3     1  UNL1        0.0955
      9 C         141.1858  139.4908  160.8471 C.3     1  UNL1        0.0430
     10 C         142.3287  138.8712  160.0988 C.3     1  UNL1        0.0954
     11 C         143.5821  134.2140  156.3651 C.3     1  UNL1        0.0522
     12 C         143.5243  135.7095  156.4664 C.ar    1  UNL1        0.0634
     13 C         144.2799  136.5573  155.4864 C.ar    1  UNL1        0.0296
     14 C         144.2221  138.0527  155.5877 C.ar    1  UNL1        0.0634
     15 C         144.9777  138.9006  154.6079 C.3     1  UNL1        0.0522
     16 N         143.4087  138.7003  156.6690 N.ar    1  UNL1       -0.2180
     17 C         142.6531  137.8525  157.6489 C.ar    1  UNL1        0.2195
     18 N         142.7109  136.3570  157.5476 N.ar    1  UNL1       -0.2180
     19 C         139.1516  141.4545  164.4644 C.ar    1  UNL1        0.0690
     20 C         139.0624  140.4662  165.5892 C.ar    1  UNL1       -0.0159
     21 C         138.3448  139.1643  165.3886 C.3     1  UNL1        0.0312
     22 C         139.6908  140.7797  166.9147 C.ar    1  UNL1       -0.0040
     23 C         140.4084  142.0815  167.1153 C.ar    1  UNL1        0.0013
     24 C         140.4976  143.0699  165.9905 C.ar    1  UNL1        0.0210
     25 C         139.8692  142.7563  164.6651 C.ar    1  UNL1        0.1069
     26 N         139.9584  143.7447  163.5402 N.ar    1  UNL1       -0.1477
     27 N         139.0122  144.8809  163.2878 N.ar    1  UNL1       -0.1447
     28 C         139.4784  145.6087  162.0619 C.ar    1  UNL1        0.1446
     29 C         140.7128  144.9223  161.5567 C.ar    1  UNL1        0.1446
     30 N         141.0093  143.7703  162.4703 N.ar    1  UNL1       -0.1447
@<TRIPOS>BOND
     1    11    12    1
     2    12    13   ar
     3    13    14   ar
     4    14    15    1
     5    14    16   ar
     6    16    17   ar
     7    17     1    1
     8     1     2    1
     9     3     2    1
    10     3     4    1
    11     4     5    1
    12     5     6   am
    13     6     7    2
    14     6    19    1
    15    19    20   ar
    16    20    21    1
    17    20    22   ar
    18    22    23   ar
    19    23    24   ar
    20    24    25   ar
    21    25    26    1
    22    26    27   ar
    23    27    28   ar
    24    28    29   ar
    25    29    30   ar
    26     5     8    1
    27     9     8    1
    28     9    10    1
    29    17    18   ar
    30    18    12   ar
    31    10     1    1
    32     9     3    1
    33    25    19   ar
    34    30    26   ar
@<TRIPOS>MOLECULE
*****
 30 34 0 0 0
SMALL
GASTEIGER

@<TRIPOS>ATOM
      1 N         138.3083  140.6461  159.2850 N.pl3   1  UNL1       -0.2781
      2 C         138.9163  139.2862  159.4613 C.3     1  UNL1        0.0954
      3 C         139.3252  139.1439  160.8975 C.3     1  UNL1        0.0430
      4 C         139.9537  138.2156  161.8941 C.3     1  UNL1        0.0955
      5 N         139.9869  138.9137  163.2213 N.am    1  UNL1       -0.2759
      6 C         140.5323  138.3509  164.5002 C.2     1  UNL1        0.2502
      7 O         141.1126  136.9678  164.5237 O.2     1  UNL1       -0.2699
      8 C         139.3789  140.2737  163.0449 C.3     1  UNL1        0.0955
      9 C         138.9700  140.4159  161.6088 C.3     1  UNL1        0.0430
     10 C         138.3415  141.3443  160.6122 C.3     1  UNL1        0.0954
     11 C         138.2848  144.3613  155.6524 C.3     1  UNL1        0.0522
     12 C         137.7511  143.0665  156.1898 C.ar    1  UNL1        0.0634
     13 C         136.6720  142.3347  155.4482 C.ar    1  UNL1        0.0296
     14 C         136.1384  141.0399  155.9856 C.ar    1  UNL1        0.0634
     15 C         135.0593  140.3080  155.2441 C.3     1  UNL1        0.0522
     16 N         136.6838  140.4771  157.2645 N.ar    1  UNL1       -0.2180
     17 C         137.7629  141.2089  158.0061 C.ar    1  UNL1        0.2195
     18 N         138.2966  142.5037  157.4687 N.ar    1  UNL1       -0.2180
     19 C         140.4974  139.1710  165.7556 C.ar    1  UNL1        0.0690
     20 C         139.2824  139.1451  166.6348 C.ar    1  UNL1       -0.0159
     21 C         138.1022  138.2991  166.2586 C.3     1  UNL1        0.0312
     22 C         139.2475  139.9652  167.8904 C.ar    1  UNL1       -0.0040
     23 C         140.4275  140.8112  168.2666 C.ar    1  UNL1        0.0013
     24 C         141.6426  140.8372  167.3874 C.ar    1  UNL1        0.0210
     25 C         141.6775  140.0171  166.1320 C.ar    1  UNL1        0.1069
     26 N         142.8925  140.0430  165.2527 N.ar    1  UNL1       -0.1477
     27 N         144.0308  139.0669  165.2928 N.ar    1  UNL1       -0.1447
     28 C         145.0244  139.4702  164.2439 C.ar    1  UNL1        0.1446
     29 C         144.5001  140.6955  163.5556 C.ar    1  UNL1        0.1446
     30 N         143.1826  141.0495  164.1791 N.ar    1  UNL1       -0.1447
@<TRIPOS>BOND
     1    11    12    1
     2    12    13   ar
     3    13    14   ar
     4    14    15    1
     5    14    16   ar
     6    16    17   ar
     7    17     1    1
     8     1     2    1
     9     3     2    1
    10     3     4    1
    11     4     5    1
    12     5     6   am
    13     6     7    2
    14     6    19    1
    15    19    20   ar
    16    20    21    1
    17    20    22   ar
    18    22    23   ar
    19    23    24   ar
    20    24    25   ar
    21    25    26    1
    22    26    27   ar
    23    27    28   ar
    24    28    29   ar
    25    29    30   ar
    26     5     8    1
    27     9     8    1
    28     9    10    1
    29    17    18   ar
    30    18    12   ar
    31    10     1    1
    32     9     3    1
    33    25    19   ar
    34    30    26   ar
@<TRIPOS>MOLECULE
*****
 30 34 0 0 0
SMALL
GASTEIGER

@<TRIPOS>ATOM
      1 N         140.6708  144.1865  158.3617 N.pl3   1  UNL1       -0.2781
      2 C         142.1545  143.9819  158.2799 C.3     1  UNL1        0.0954
      3 C         142.6179  143.4201  159.5912 C.3     1  UNL1        0.0430
      4 C         143.8213  142.9464  160.3510 C.3     1  UNL1        0.0955
      5 N         143.3678  142.5109  161.7130 N.am    1  UNL1       -0.2759
      6 C         144.2441  141.9665  162.8018 C.2     1  UNL1        0.2502
      7 O         145.7192  141.8179  162.5735 O.2     1  UNL1       -0.2699
      8 C         141.8840  142.7155  161.7947 C.3     1  UNL1        0.0955
      9 C         141.4206  143.2773  160.4834 C.3     1  UNL1        0.0430
     10 C         140.2172  143.7510  159.7236 C.3     1  UNL1        0.0954
     11 C         136.9604  143.4768  154.7939 C.3     1  UNL1        0.0522
     12 C         137.9392  144.3761  155.4889 C.ar    1  UNL1        0.0634
     13 C         138.0417  145.8199  155.0951 C.ar    1  UNL1        0.0296
     14 C         139.0206  146.7192  155.7901 C.ar    1  UNL1        0.0634
     15 C         139.1232  148.1629  155.3964 C.3     1  UNL1        0.0522
     16 N         139.8969  146.1746  156.8790 N.ar    1  UNL1       -0.2180
     17 C         139.7944  144.7309  157.2728 C.ar    1  UNL1        0.2195
     18 N         138.8156  143.8316  156.5778 N.ar    1  UNL1       -0.2180
     19 C         143.6454  141.5707  164.1189 C.ar    1  UNL1        0.0690
     20 C         143.7331  142.5009  165.2924 C.ar    1  UNL1       -0.0159
     21 C         144.4196  143.8268  165.1487 C.3     1  UNL1        0.0312
     22 C         143.1344  142.1051  166.6096 C.ar    1  UNL1       -0.0040
     23 C         142.4480  140.7792  166.7533 C.ar    1  UNL1        0.0013
     24 C         142.3603  139.8489  165.5798 C.ar    1  UNL1        0.0210
     25 C         142.9590  140.2447  164.2627 C.ar    1  UNL1        0.1069
     26 N         142.8712  139.3145  163.0892 N.ar    1  UNL1       -0.1477
     27 N         144.0107  138.5508  162.4824 N.ar    1  UNL1       -0.1447
     28 C         143.4724  137.7490  161.3347 C.ar    1  UNL1        0.1446
     29 C         142.0001  138.0173  161.2321 C.ar    1  UNL1        0.1446
     30 N         141.6286  138.9848  162.3164 N.ar    1  UNL1       -0.1447
@<TRIPOS>BOND
     1    11    12    1
     2    12    13   ar
     3    13    14   ar
     4    14    15    1
     5    14    16   ar
     6    16    17   ar
     7    17     1    1
     8     1     2    1
     9     3     2    1
    10     3     4    1
    11     4     5    1
    12     5     6   am
    13     6     7    2
    14     6    19    1
    15    19    20   ar
    16    20    21    1
    17    20    22   ar
    18    22    23   ar
    19    23    24   ar
    20    24    25   ar
    21    25    26    1
    22    26    27   ar
    23    27    28   ar
    24    28    29   ar
    25    29    30   ar
    26     5     8    1
    27     9     8    1
    28     9    10    1
    29    17    18   ar
    30    18    12   ar
    31    10     1    1
    32     9     3    1
    33    25    19   ar
    34    30    26   ar
@<TRIPOS>MOLECULE
*****
 30 34 0 0 0
SMALL
GASTEIGER

@<TRIPOS>ATOM
      1 N         141.8275  139.0103  158.8409 N.pl3   1  UNL1       -0.2781
      2 C         142.1079  140.4634  158.5961 C.3     1  UNL1        0.0954
      3 C         142.1444  141.1587  159.9247 C.3     1  UNL1        0.0430
      4 C         142.3402  142.4864  160.5946 C.3     1  UNL1        0.0955
      5 N         142.2033  142.2837  162.0745 N.am    1  UNL1       -0.2759
      6 C         142.3254  143.3473  163.1251 C.2     1  UNL1        0.2502
      7 O         142.6098  144.7654  162.7273 O.2     1  UNL1       -0.2699
      8 C         141.9229  140.8306  162.3193 C.3     1  UNL1        0.0955
      9 C         141.8865  140.1353  160.9907 C.3     1  UNL1        0.0430
     10 C         141.6907  138.8075  160.3209 C.3     1  UNL1        0.0954
     11 C         139.2253  136.8702  154.8851 C.3     1  UNL1        0.0522
     12 C         140.4043  136.8766  155.8124 C.ar    1  UNL1        0.0634
     13 C         141.4612  135.8194  155.6891 C.ar    1  UNL1        0.0296
     14 C         142.6402  135.8258  156.6164 C.ar    1  UNL1        0.0634
     15 C         143.6972  134.7686  156.4931 C.3     1  UNL1        0.0522
     16 N         142.7623  136.8895  157.6670 N.ar    1  UNL1       -0.2180
     17 C         141.7054  137.9467  157.7903 C.ar    1  UNL1        0.2195
     18 N         140.5264  137.9403  156.8630 N.ar    1  UNL1       -0.2180
     19 C         142.1632  142.9928  164.5736 C.ar    1  UNL1        0.0690
     20 C         143.3720  142.7229  165.4196 C.ar    1  UNL1       -0.0159
     21 C         144.7432  142.8074  164.8172 C.3     1  UNL1        0.0312
     22 C         143.2098  142.3684  166.8681 C.ar    1  UNL1       -0.0040
     23 C         141.8388  142.2840  167.4706 C.ar    1  UNL1        0.0013
     24 C         140.6298  142.5539  166.6245 C.ar    1  UNL1        0.0210
     25 C         140.7921  142.9083  165.1761 C.ar    1  UNL1        0.1069
     26 N         139.5832  143.1783  164.3301 N.ar    1  UNL1       -0.1477
     27 N         138.9482  144.5179  164.1017 N.ar    1  UNL1       -0.1447
     28 C         137.7696  144.3236  163.1944 C.ar    1  UNL1        0.1446
     29 C         137.6763  142.8639  162.8620 C.ar    1  UNL1        0.1446
     30 N         138.7971  142.1561  163.5639 N.ar    1  UNL1       -0.1447
@<TRIPOS>BOND
     1    11    12    1
     2    12    13   ar
     3    13    14   ar
     4    14    15    1
     5    14    16   ar
     6    16    17   ar
     7    17     1    1
     8     1     2    1
     9     3     2    1
    10     3     4    1
    11     4     5    1
    12     5     6   am
    13     6     7    2
    14     6    19    1
    15    19    20   ar
    16    20    21    1
    17    20    22   ar
    18    22    23   ar
    19    23    24   ar
    20    24    25   ar
    21    25    26    1
    22    26    27   ar
    23    27    28   ar
    24    28    29   ar
    25    29    30   ar
    26     5     8    1
    27     9     8    1
    28     9    10    1
    29    17    18   ar
    30    18    12   ar
    31    10     1    1
    32     9     3    1
    33    25    19   ar
    34    30    26   ar
@<TRIPOS>MOLECULE
*****
 30 34 0 0 0
SMALL
GASTEIGER

@<TRIPOS>ATOM
      1 N         143.9467  141.2285  158.5014 N.pl3   1  UNL1       -0.2781
      2 C         143.7034  142.6986  158.6738 C.3     1  UNL1        0.0954
      3 C         143.3046  142.9382  160.0998 C.3     1  UNL1        0.0430
      4 C         142.9077  143.9948  161.0878 C.3     1  UNL1        0.0955
      5 N         142.6592  143.3259  162.4072 N.am    1  UNL1       -0.2759
      6 C         142.2409  144.0074  163.6762 C.2     1  UNL1        0.2502
      7 O         142.0345  145.4930  163.6970 O.2     1  UNL1       -0.2699
      8 C         142.9025  141.8558  162.2347 C.3     1  UNL1        0.0955
      9 C         143.3013  141.6162  160.8087 C.3     1  UNL1        0.0430
     10 C         143.6982  140.5596  159.8207 C.3     1  UNL1        0.0954
     11 C         146.5347  141.3019  153.9962 C.3     1  UNL1        0.0522
     12 C         145.6590  140.5836  154.9797 C.ar    1  UNL1        0.0634
     13 C         145.2017  139.1839  154.6941 C.ar    1  UNL1        0.0296
     14 C         144.3260  138.4657  155.6777 C.ar    1  UNL1        0.0634
     15 C         143.8686  137.0660  155.3922 C.3     1  UNL1        0.0522
     16 N         143.9077  139.1473  156.9467 N.ar    1  UNL1       -0.2180
     17 C         144.3650  140.5470  157.2323 C.ar    1  UNL1        0.2195
     18 N         145.2407  141.2652  156.2488 N.ar    1  UNL1       -0.2180
     19 C         142.0289  143.2033  164.9246 C.ar    1  UNL1        0.0690
     20 C         143.1869  142.9047  165.8301 C.ar    1  UNL1       -0.0159
     21 C         144.5569  143.4102  165.4871 C.3     1  UNL1        0.0312
     22 C         142.9750  142.1006  167.0785 C.ar    1  UNL1       -0.0040
     23 C         141.6051  141.5951  167.4215 C.ar    1  UNL1        0.0013
     24 C         140.4469  141.8937  166.5161 C.ar    1  UNL1        0.0210
     25 C         140.6589  142.6978  165.2677 C.ar    1  UNL1        0.1069
     26 N         139.5009  142.9963  164.3622 N.ar    1  UNL1       -0.1477
     27 N         138.7624  144.2991  164.2757 N.ar    1  UNL1       -0.1447
     28 C         137.6831  144.1525  163.2444 C.ar    1  UNL1        0.1446
     29 C         137.7546  142.7591  162.6935 C.ar    1  UNL1        0.1446
     30 N         138.8780  142.0446  163.3844 N.ar    1  UNL1       -0.1447
@<TRIPOS>BOND
     1    11    12    1
     2    12    13   ar
     3    13    14   ar
     4    14    15    1
     5    14    16   ar
     6    16    17   ar
     7    17     1    1
     8     1     2    1
     9     3     2    1
    10     3     4    1
    11     4     5    1
    12     5     6   am
    13     6     7    2
    14     6    19    1
    15    19    20   ar
    16    20    21    1
    17    20    22   ar
    18    22    23   ar
    19    23    24   ar
    20    24    25   ar
    21    25    26    1
    22    26    27   ar
    23    27    28   ar
    24    28    29   ar
    25    29    30   ar
    26     5     8    1
    27     9     8    1
    28     9    10    1
    29    17    18   ar
    30    18    12   ar
    31    10     1    1
    32     9     3    1
    33    25    19   ar
    34    30    26   ar
@<TRIPOS>MOLECULE
*****
 30 34 0 0 0
SMALL
GASTEIGER

@<TRIPOS>ATOM
      1 N         142.3120  137.9997  158.8627 N.pl3   1  UNL1       -0.2781
      2 C         142.8852  137.6349  160.2000 C.3     1  UNL1        0.0954
      3 C         142.3000  138.5621  161.2236 C.3     1  UNL1        0.0430
      4 C         142.2926  138.9097  162.6827 C.3     1  UNL1        0.0955
      5 N         141.3531  140.0623  162.8800 N.am    1  UNL1       -0.2759
      6 C         141.0415  140.7325  164.1852 C.2     1  UNL1        0.2502
      7 O         141.6955  140.2555  165.4482 O.2     1  UNL1       -0.2699
      8 C         140.7798  140.4271  161.5426 C.3     1  UNL1        0.0955
      9 C         141.3650  139.4999  160.5190 C.3     1  UNL1        0.0430
     10 C         141.3724  139.1523  159.0598 C.3     1  UNL1        0.0954
     11 C         143.8314  133.7968  156.2119 C.3     1  UNL1        0.0522
     12 C         143.3832  135.2281  156.2320 C.ar    1  UNL1        0.0634
     13 C         143.2466  135.9893  154.9467 C.ar    1  UNL1        0.0296
     14 C         142.7984  137.4206  154.9667 C.ar    1  UNL1        0.0634
     15 C         142.6617  138.1818  153.6815 C.3     1  UNL1        0.0522
     16 N         142.4868  138.0907  156.2721 N.ar    1  UNL1       -0.2180
     17 C         142.6235  137.3295  157.5574 C.ar    1  UNL1        0.2195
     18 N         143.0717  135.8982  157.5373 N.ar    1  UNL1       -0.2180
     19 C         140.0761  141.8797  164.2277 C.ar    1  UNL1        0.0690
     20 C         138.6199  141.6254  164.4822 C.ar    1  UNL1       -0.0159
     21 C         138.1292  140.2239  164.6943 C.3     1  UNL1        0.0312
     22 C         137.6544  142.7726  164.5247 C.ar    1  UNL1       -0.0040
     23 C         138.1451  144.1741  164.3126 C.ar    1  UNL1        0.0013
     24 C         139.6013  144.4284  164.0580 C.ar    1  UNL1        0.0210
     25 C         140.5668  143.2812  164.0156 C.ar    1  UNL1        0.1069
     26 N         142.0230  143.5355  163.7610 N.ar    1  UNL1       -0.1477
     27 N         142.6460  143.8363  162.4301 N.ar    1  UNL1       -0.1447
     28 C         144.1199  144.0203  162.6392 C.ar    1  UNL1        0.1446
     29 C         144.4078  143.8334  164.0994 C.ar    1  UNL1        0.1446
     30 N         143.1118  143.5338  164.7927 N.ar    1  UNL1       -0.1447
@<TRIPOS>BOND
     1    11    12    1
     2    12    13   ar
     3    13    14   ar
     4    14    15    1
     5    14    16   ar
     6    16    17   ar
     7    17     1    1
     8     1     2    1
     9     3     2    1
    10     3     4    1
    11     4     5    1
    12     5     6   am
    13     6     7    2
    14     6    19    1
    15    19    20   ar
    16    20    21    1
    17    20    22   ar
    18    22    23   ar
    19    23    24   ar
    20    24    25   ar
    21    25    26    1
    22    26    27   ar
    23    27    28   ar
    24    28    29   ar
    25    29    30   ar
    26     5     8    1
    27     9     8    1
    28     9    10    1
    29    17    18   ar
    30    18    12   ar
    31    10     1    1
    32     9     3    1
    33    25    19   ar
    34    30    26   ar
@<TRIPOS>MOLECULE
*****
 30 34 0 0 0
SMALL
GASTEIGER

@<TRIPOS>ATOM
      1 N         141.2441  138.5002  158.6358 N.pl3   1  UNL1       -0.2781
      2 C         139.9934  138.7751  159.4169 C.3     1  UNL1        0.0954
      3 C         140.3455  139.6978  160.5459 C.3     1  UNL1        0.0430
      4 C         139.7902  140.4380  161.7265 C.3     1  UNL1        0.0955
      5 N         140.9152  141.1908  162.3728 N.am    1  UNL1       -0.2759
      6 C         140.8084  142.0649  163.5869 C.2     1  UNL1        0.2502
      7 O         139.4833  142.2463  164.2663 O.2     1  UNL1       -0.2699
      8 C         142.1659  140.9158  161.5915 C.3     1  UNL1        0.0955
      9 C         141.8138  139.9931  160.4625 C.3     1  UNL1        0.0430
     10 C         142.3692  139.2529  159.2820 C.3     1  UNL1        0.0954
     11 C         143.7522  134.8384  155.9337 C.3     1  UNL1        0.0522
     12 C         142.6050  135.7951  156.0705 C.ar    1  UNL1        0.0634
     13 C         141.5647  135.8775  154.9930 C.ar    1  UNL1        0.0296
     14 C         140.4175  136.8342  155.1298 C.ar    1  UNL1        0.0634
     15 C         139.3772  136.9167  154.0524 C.3     1  UNL1        0.0522
     16 N         140.3107  137.7084  156.3441 N.ar    1  UNL1       -0.2180
     17 C         141.3510  137.6259  157.4215 C.ar    1  UNL1        0.2195
     18 N         142.4982  136.6693  157.2848 N.ar    1  UNL1       -0.2180
     19 C         142.0265  142.7578  164.1218 C.ar    1  UNL1        0.0690
     20 C         142.8053  142.1435  165.2470 C.ar    1  UNL1       -0.0159
     21 C         142.3659  140.8364  165.8374 C.3     1  UNL1        0.0312
     22 C         144.0234  142.8364  165.7820 C.ar    1  UNL1       -0.0040
     23 C         144.4628  144.1435  165.1917 C.ar    1  UNL1        0.0013
     24 C         143.6840  144.7578  164.0664 C.ar    1  UNL1        0.0210
     25 C         142.4659  144.0649  163.5315 C.ar    1  UNL1        0.1069
     26 N         141.6871  144.6792  162.4063 N.ar    1  UNL1       -0.1477
     27 N         140.4482  145.5136  162.5439 N.ar    1  UNL1       -0.1447
     28 C         140.0059  145.9170  161.1685 C.ar    1  UNL1        0.1446
     29 C         140.9714  145.3319  160.1809 C.ar    1  UNL1        0.1446
     30 N         142.0104  144.5669  160.9459 N.ar    1  UNL1       -0.1447
@<TRIPOS>BOND
     1    11    12    1
     2    12    13   ar
     3    13    14   ar
     4    14    15    1
     5    14    16   ar
     6    16    17   ar
     7    17     1    1
     8     1     2    1
     9     3     2    1
    10     3     4    1
    11     4     5    1
    12     5     6   am
    13     6     7    2
    14     6    19    1
    15    19    20   ar
    16    20    21    1
    17    20    22   ar
    18    22    23   ar
    19    23    24   ar
    20    24    25   ar
    21    25    26    1
    22    26    27   ar
    23    27    28   ar
    24    28    29   ar
    25    29    30   ar
    26     5     8    1
    27     9     8    1
    28     9    10    1
    29    17    18   ar
    30    18    12   ar
    31    10     1    1
    32     9     3    1
    33    25    19   ar
    34    30    26   ar
@<TRIPOS>MOLECULE
*****
 30 34 0 0 0
SMALL
GASTEIGER

@<TRIPOS>ATOM
      1 N         139.9434  138.6915  158.8580 N.pl3   1  UNL1       -0.2781
      2 C         138.7795  139.5993  159.1245 C.3     1  UNL1        0.0954
      3 C         138.8709  140.0646  160.5475 C.3     1  UNL1        0.0430
      4 C         138.2081  140.9133  161.5918 C.3     1  UNL1        0.0955
      5 N         139.0188  140.8175  162.8502 N.am    1  UNL1       -0.2759
      6 C         138.7184  141.5083  164.1472 C.2     1  UNL1        0.2502
      7 O         137.5113  142.3909  164.2650 O.2     1  UNL1       -0.2699
      8 C         140.1828  139.9096  162.5836 C.3     1  UNL1        0.0955
      9 C         140.0914  139.4443  161.1606 C.3     1  UNL1        0.0430
     10 C         140.7542  138.5957  160.1163 C.3     1  UNL1        0.0954
     11 C         138.4871  137.2567  154.0809 C.3     1  UNL1        0.0522
     12 C         139.5157  137.2832  155.1723 C.ar    1  UNL1        0.0634
     13 C         140.8448  136.6190  154.9666 C.ar    1  UNL1        0.0296
     14 C         141.8734  136.6455  156.0580 C.ar    1  UNL1        0.0634
     15 C         143.2025  135.9813  155.8524 C.3     1  UNL1        0.0522
     16 N         141.5729  137.3364  157.3552 N.ar    1  UNL1       -0.2180
     17 C         140.2438  138.0006  157.5609 C.ar    1  UNL1        0.2195
     18 N         139.2152  137.9741  156.4694 N.ar    1  UNL1       -0.2180
     19 C         139.6252  141.3165  165.3267 C.ar    1  UNL1        0.0690
     20 C         139.3165  140.2604  166.3461 C.ar    1  UNL1       -0.0159
     21 C         138.1011  139.3959  166.1861 C.3     1  UNL1        0.0312
     22 C         140.2232  140.0686  167.5256 C.ar    1  UNL1       -0.0040
     23 C         141.4386  140.9329  167.6856 C.ar    1  UNL1        0.0013
     24 C         141.7473  141.9892  166.6662 C.ar    1  UNL1        0.0210
     25 C         140.8406  142.1809  165.4868 C.ar    1  UNL1        0.1069
     26 N         141.1493  143.2371  164.4674 N.ar    1  UNL1       -0.1477
     27 N         140.4839  144.5769  164.3566 N.ar    1  UNL1       -0.1447
     28 C         141.1010  145.3067  163.2005 C.ar    1  UNL1        0.1446
     29 C         142.1477  144.4180  162.5967 C.ar    1  UNL1        0.1446
     30 N         142.1775  143.1390  163.3797 N.ar    1  UNL1       -0.1447
@<TRIPOS>BOND
     1    11    12    1
     2    12    13   ar
     3    13    14   ar
     4    14    15    1
     5    14    16   ar
     6    16    17   ar
     7    17     1    1
     8     1     2    1
     9     3     2    1
    10     3     4    1
    11     4     5    1
    12     5     6   am
    13     6     7    2
    14     6    19    1
    15    19    20   ar
    16    20    21    1
    17    20    22   ar
    18    22    23   ar
    19    23    24   ar
    20    24    25   ar
    21    25    26    1
    22    26    27   ar
    23    27    28   ar
    24    28    29   ar
    25    29    30   ar
    26     5     8    1
    27     9     8    1
    28     9    10    1
    29    17    18   ar
    30    18    12   ar
    31    10     1    1
    32     9     3    1
    33    25    19   ar
    34    30    26   ar
@<TRIPOS>MOLECULE
*****
 30 34 0 0 0
SMALL
GASTEIGER

@<TRIPOS>ATOM
      1 N         138.4506  141.0851  158.4048 N.pl3   1  UNL1       -0.2781
      2 C         138.9566  139.7116  158.7325 C.3     1  UNL1        0.0954
      3 C         139.8565  139.8221  159.9275 C.3     1  UNL1        0.0430
      4 C         140.7254  139.0415  160.8686 C.3     1  UNL1        0.0955
      5 N         141.3126  140.0008  161.8611 N.am    1  UNL1       -0.2759
      6 C         142.2425  139.6485  162.9840 C.2     1  UNL1        0.2502
      7 O         142.6641  138.2237  163.1898 O.2     1  UNL1       -0.2699
      8 C         140.8065  141.3744  161.5333 C.3     1  UNL1        0.0955
      9 C         139.9066  141.2639  160.3383 C.3     1  UNL1        0.0430
     10 C         139.0377  142.0445  159.3972 C.3     1  UNL1        0.0954
     11 C         137.0522  144.2827  154.5552 C.3     1  UNL1        0.0522
     12 C         136.8214  143.0362  155.3570 C.ar    1  UNL1        0.0634
     13 C         135.6607  142.1421  155.0359 C.ar    1  UNL1        0.0296
     14 C         135.4299  140.8956  155.8377 C.ar    1  UNL1        0.0634
     15 C         134.2692  140.0014  155.5166 C.3     1  UNL1        0.0522
     16 N         136.3599  140.5433  156.9607 N.ar    1  UNL1       -0.2180
     17 C         137.5206  141.4375  157.2818 C.ar    1  UNL1        0.2195
     18 N         137.7514  142.6840  156.4800 N.ar    1  UNL1       -0.2180
     19 C         142.7509  140.7210  163.9013 C.ar    1  UNL1        0.0690
     20 C         144.0802  141.3643  163.6387 C.ar    1  UNL1       -0.0159
     21 C         144.9011  140.9353  162.4589 C.3     1  UNL1        0.0312
     22 C         144.5887  142.4368  164.5560 C.ar    1  UNL1       -0.0040
     23 C         143.7678  142.8659  165.7358 C.ar    1  UNL1        0.0013
     24 C         142.4384  142.2225  165.9984 C.ar    1  UNL1        0.0210
     25 C         141.9300  141.1501  165.0811 C.ar    1  UNL1        0.1069
     26 N         140.6007  140.5067  165.3437 N.ar    1  UNL1       -0.1477
     27 N         140.3700  139.2454  166.1221 N.ar    1  UNL1       -0.1447
     28 C         138.8954  138.9709  166.1335 C.ar    1  UNL1        0.1446
     29 C         138.2147  140.0625  165.3620 C.ar    1  UNL1        0.1446
     30 N         139.2686  141.0116  164.8739 N.ar    1  UNL1       -0.1447
@<TRIPOS>BOND
     1    11    12    1
     2    12    13   ar
     3    13    14   ar
     4    14    15    1
     5    14    16   ar
     6    16    17   ar
     7    17     1    1
     8     1     2    1
     9     3     2    1
    10     3     4    1
    11     4     5    1
    12     5     6   am
    13     6     7    2
    14     6    19    1
    15    19    20   ar
    16    20    21    1
    17    20    22   ar
    18    22    23   ar
    19    23    24   ar
    20    24    25   ar
    21    25    26    1
    22    26    27   ar
    23    27    28   ar
    24    28    29   ar
    25    29    30   ar
    26     5     8    1
    27     9     8    1
    28     9    10    1
    29    17    18   ar
    30    18    12   ar
    31    10     1    1
    32     9     3    1
    33    25    19   ar
    34    30    26   ar
