@<TRIPOS>MOLECULE
*****
 33 36 0 0 0
SMALL
GASTEIGER

@<TRIPOS>ATOM
      1 N         142.2223  139.2626  159.5652 N.3     1  UNL1       -0.2673
      2 C         142.4799  138.5101  160.8369 C.3     1  UNL1        0.1035
      3 C         143.3358  139.1183  161.9080 C.3     1  UNL1        0.1470
      4 C         144.1917  139.7266  162.9792 C.3     1  UNL1        0.1035
      5 N         144.7900  141.0875  162.7787 N.3     1  UNL1       -0.2682
      6 C         144.5323  141.8400  161.5069 C.3     1  UNL1        0.1035
      7 C         143.6764  141.2317  160.4358 C.3     1  UNL1        0.1470
      8 C         142.8205  140.6235  159.3646 C.3     1  UNL1        0.1035
      9 O         143.9340  140.4792  161.7075 O.3     1  UNL1       -0.3530
     10 C         141.3664  138.6544  158.4939 C.3     1  UNL1        0.0916
     11 C         139.9087  138.4082  158.7481 C.3     1  UNL1        0.1131
     12 C         138.4232  140.5378  158.6576 C.3     1  UNL1        0.1149
     13 N         139.0835  139.4472  159.4479 N.3     1  UNL1       -0.1526
     14 S         138.9187  139.3956  160.9379 S.O2    1  UNL1        0.0634
     15 O         138.8459  137.8985  160.8779 O.2     1  UNL1       -0.1528
     16 O         138.9914  140.8926  160.9979 O.2     1  UNL1       -0.1528
     17 C         138.7538  139.3439  162.4279 C.ar    1  UNL1        0.1222
     18 C         138.2832  140.5577  163.1730 C.ar    1  UNL1        0.0206
     19 C         138.1183  140.5060  164.6630 C.ar    1  UNL1        0.0116
     20 C         138.4241  139.2405  165.4080 C.ar    1  UNL1        0.0685
     21 C         138.8948  138.0267  164.6629 C.ar    1  UNL1        0.0116
     22 C         139.0596  138.0783  163.1729 C.ar    1  UNL1        0.0206
     23 C         138.2593  139.1889  166.8980 C.1     1  UNL1        0.1004
     24 N         138.0944  139.1372  168.3880 N.1     1  UNL1       -0.1908
     25 C         145.6459  141.6957  163.8499 C.3     1  UNL1        0.0769
     26 C         145.1021  142.7995  164.7078 C.3     1  UNL1        0.0437
     27 C         143.6231  142.9197  164.9272 C.ar    1  UNL1       -0.0186
     28 C         142.8284  143.9244  164.1469 C.ar    1  UNL1       -0.0041
     29 C         141.3494  144.0446  164.3662 C.ar    1  UNL1        0.0020
     30 C         140.6651  143.1600  165.3659 C.ar    1  UNL1        0.0296
     31 C         141.4599  142.1553  166.1462 C.ar    1  UNL1        0.1398
     32 F         140.7756  141.2707  167.1458 F       1  UNL1       -0.2042
     33 C         142.9389  142.0351  165.9268 C.ar    1  UNL1        0.0254
@<TRIPOS>BOND
     1    12    13    1
     2    13    11    1
     3    11    10    1
     4    10     1    1
     5     1     2    1
     6     2     3    1
     7     3     4    1
     8     4     5    1
     9     5    25    1
    10    25    26    1
    11    26    27    1
    12    27    28   ar
    13    28    29   ar
    14    29    30   ar
    15    30    31   ar
    16    31    32    1
    17    31    33   ar
    18     5     6    1
    19     6     7    1
    20     7     8    1
    21     7     9    1
    22    13    14    1
    23    14    15    2
    24    14    16    2
    25    14    17    1
    26    17    18   ar
    27    18    19   ar
    28    19    20   ar
    29    20    23    1
    30    23    24    3
    31    20    21   ar
    32    21    22   ar
    33     8     1    1
    34    22    17   ar
    35     9     3    1
    36    33    27   ar
@<TRIPOS>MOLECULE
*****
 33 36 0 0 0
SMALL
GASTEIGER

@<TRIPOS>ATOM
      1 N         142.0034  143.9358  162.5684 N.3     1  UNL1       -0.2673
      2 C         142.1643  143.0771  161.3491 C.3     1  UNL1        0.1035
      3 C         141.0891  142.1018  160.9715 C.3     1  UNL1        0.1470
      4 C         140.0138  141.1265  160.5938 C.3     1  UNL1        0.1035
      5 N         138.7777  141.0099  161.4355 N.3     1  UNL1       -0.2682
      6 C         138.6168  141.8686  162.6548 C.3     1  UNL1        0.1035
      7 C         139.6921  142.8439  163.0325 C.3     1  UNL1        0.1470
      8 C         140.7673  143.8192  163.4101 C.3     1  UNL1        0.1035
      9 O         139.8530  141.9852  161.8132 O.3     1  UNL1       -0.3530
     10 C         143.0787  144.9112  162.9461 C.3     1  UNL1        0.0916
     11 C         144.1129  144.5305  163.9637 C.3     1  UNL1        0.1131
     12 C         145.2834  142.2468  163.5573 C.3     1  UNL1        0.1149
     13 N         144.3109  143.0891  164.3287 N.3     1  UNL1       -0.1526
     14 S         143.5366  142.4899  165.4651 S.O2    1  UNL1        0.0634
     15 O         142.9077  141.5097  164.5198 O.2     1  UNL1       -0.1528
     16 O         144.1654  143.4702  166.4104 O.2     1  UNL1       -0.1528
     17 C         142.7622  141.8908  166.6015 C.ar    1  UNL1        0.1222
     18 C         143.1160  142.2400  168.0167 C.ar    1  UNL1        0.0206
     19 C         142.3416  141.6409  169.1530 C.ar    1  UNL1        0.0116
     20 C         141.2134  140.6926  168.8743 C.ar    1  UNL1        0.0685
     21 C         140.8596  140.3433  167.4590 C.ar    1  UNL1        0.0116
     22 C         141.6339  140.9424  166.3226 C.ar    1  UNL1        0.0206
     23 C         140.4391  140.0935  170.0107 C.1     1  UNL1        0.1004
     24 N         139.6647  139.4943  171.1471 N.1     1  UNL1       -0.1908
     25 C         137.7025  140.0346  161.0578 C.3     1  UNL1        0.0769
     26 C         137.6966  138.6574  161.6523 C.3     1  UNL1        0.0437
     27 C         138.8446  138.2033  162.5042 C.ar    1  UNL1       -0.0186
     28 C         138.6462  137.9827  163.9745 C.ar    1  UNL1       -0.0041
     29 C         139.7943  137.5286  164.8264 C.ar    1  UNL1        0.0020
     30 C         141.1408  137.2951  164.2080 C.ar    1  UNL1        0.0296
     31 C         141.3392  137.5157  162.7376 C.ar    1  UNL1        0.1398
     32 F         142.6856  137.2821  162.1191 F       1  UNL1       -0.2042
     33 C         140.1911  137.9697  161.8857 C.ar    1  UNL1        0.0254
@<TRIPOS>BOND
     1    12    13    1
     2    13    11    1
     3    11    10    1
     4    10     1    1
     5     1     2    1
     6     2     3    1
     7     3     4    1
     8     4     5    1
     9     5    25    1
    10    25    26    1
    11    26    27    1
    12    27    28   ar
    13    28    29   ar
    14    29    30   ar
    15    30    31   ar
    16    31    32    1
    17    31    33   ar
    18     5     6    1
    19     6     7    1
    20     7     8    1
    21     7     9    1
    22    13    14    1
    23    14    15    2
    24    14    16    2
    25    14    17    1
    26    17    18   ar
    27    18    19   ar
    28    19    20   ar
    29    20    23    1
    30    23    24    3
    31    20    21   ar
    32    21    22   ar
    33     8     1    1
    34    22    17   ar
    35     9     3    1
    36    33    27   ar
@<TRIPOS>MOLECULE
*****
 33 36 0 0 0
SMALL
GASTEIGER

@<TRIPOS>ATOM
      1 N         141.5083  141.5616  158.8441 N.3     1  UNL1       -0.2673
      2 C         142.1292  142.6987  159.6000 C.3     1  UNL1        0.1035
      3 C         141.3149  143.4715  160.5947 C.3     1  UNL1        0.1470
      4 C         140.5005  144.2443  161.5896 C.3     1  UNL1        0.1035
      5 N         139.0651  143.8799  161.8284 N.3     1  UNL1       -0.2682
      6 C         138.4442  142.7428  161.0725 C.3     1  UNL1        0.1035
      7 C         139.2586  141.9700  160.0777 C.3     1  UNL1        0.1470
      8 C         140.0730  141.1973  159.0830 C.3     1  UNL1        0.1035
      9 O         139.8795  143.1071  160.8336 O.3     1  UNL1       -0.3530
     10 C         142.3227  140.7888  157.8493 C.3     1  UNL1        0.0916
     11 C         143.4042  139.8635  158.3226 C.3     1  UNL1        0.1131
     12 C         142.6808  137.3688  158.3805 C.3     1  UNL1        0.1149
     13 N         143.0496  138.6315  159.1013 N.3     1  UNL1       -0.1526
     14 S         143.0637  138.6621  160.6010 S.O2    1  UNL1        0.0634
     15 O         141.5933  138.3664  160.6209 O.2     1  UNL1       -0.1528
     16 O         144.5341  138.9579  160.5810 O.2     1  UNL1       -0.1528
     17 C         143.0779  138.6928  162.1006 C.ar    1  UNL1        0.1222
     18 C         144.1968  139.3794  162.8262 C.ar    1  UNL1        0.0206
     19 C         144.2109  139.4101  164.3258 C.ar    1  UNL1        0.0116
     20 C         143.1062  138.7542  165.0998 C.ar    1  UNL1        0.0685
     21 C         141.9872  138.0675  164.3742 C.ar    1  UNL1        0.0116
     22 C         141.9730  138.0368  162.8746 C.ar    1  UNL1        0.0206
     23 C         143.1203  138.7849  166.5994 C.1     1  UNL1        0.1004
     24 N         143.1345  138.8156  168.0991 N.1     1  UNL1       -0.1908
     25 C         138.2507  144.6527  162.8232 C.3     1  UNL1        0.0769
     26 C         137.6772  143.9592  164.0233 C.3     1  UNL1        0.0437
     27 C         138.4802  142.9154  164.7414 C.ar    1  UNL1       -0.0186
     28 C         139.6743  143.3166  165.5557 C.ar    1  UNL1       -0.0041
     29 C         140.4774  142.2729  166.2738 C.ar    1  UNL1        0.0020
     30 C         140.0863  140.8280  166.1777 C.ar    1  UNL1        0.0296
     31 C         138.8921  140.4268  165.3633 C.ar    1  UNL1        0.1398
     32 F         138.5010  138.9819  165.2672 F       1  UNL1       -0.2042
     33 C         138.0891  141.4705  164.6452 C.ar    1  UNL1        0.0254
@<TRIPOS>BOND
     1    12    13    1
     2    13    11    1
     3    11    10    1
     4    10     1    1
     5     1     2    1
     6     2     3    1
     7     3     4    1
     8     4     5    1
     9     5    25    1
    10    25    26    1
    11    26    27    1
    12    27    28   ar
    13    28    29   ar
    14    29    30   ar
    15    30    31   ar
    16    31    32    1
    17    31    33   ar
    18     5     6    1
    19     6     7    1
    20     7     8    1
    21     7     9    1
    22    13    14    1
    23    14    15    2
    24    14    16    2
    25    14    17    1
    26    17    18   ar
    27    18    19   ar
    28    19    20   ar
    29    20    23    1
    30    23    24    3
    31    20    21   ar
    32    21    22   ar
    33     8     1    1
    34    22    17   ar
    35     9     3    1
    36    33    27   ar
@<TRIPOS>MOLECULE
*****
 33 36 0 0 0
SMALL
GASTEIGER

@<TRIPOS>ATOM
      1 N         139.4751  142.4275  159.7801 N.3     1  UNL1       -0.2673
      2 C         138.9093  143.2020  160.9333 C.3     1  UNL1        0.1035
      3 C         139.8295  143.8710  161.9109 C.3     1  UNL1        0.1470
      4 C         140.7497  144.5400  162.8885 C.3     1  UNL1        0.1035
      5 N         142.2356  144.4346  162.7128 N.3     1  UNL1       -0.2682
      6 C         142.8014  143.6600  161.5594 C.3     1  UNL1        0.1035
      7 C         141.8812  142.9910  160.5819 C.3     1  UNL1        0.1470
      8 C         140.9610  142.3220  159.6043 C.3     1  UNL1        0.1035
      9 O         141.3154  143.7655  161.7351 O.3     1  UNL1       -0.3530
     10 C         138.5549  141.7584  158.8024 C.3     1  UNL1        0.0916
     11 C         138.0435  140.3758  159.0792 C.3     1  UNL1        0.1131
     12 C         139.7607  138.4273  159.1478 C.3     1  UNL1        0.1149
     13 N         138.8811  139.4093  159.8632 N.3     1  UNL1       -0.1526
     14 S         138.8389  139.4249  161.3625 S.O2    1  UNL1        0.0634
     15 O         140.2829  139.0212  161.4073 O.2     1  UNL1       -0.1528
     16 O         137.3949  139.8286  161.3177 O.2     1  UNL1       -0.1528
     17 C         138.7967  139.4405  162.8618 C.ar    1  UNL1        0.1222
     18 C         139.2115  138.2249  163.6365 C.ar    1  UNL1        0.0206
     19 C         139.1694  138.2405  165.1358 C.ar    1  UNL1        0.0116
     20 C         138.7124  139.4718  165.8605 C.ar    1  UNL1        0.0685
     21 C         138.2976  140.6875  165.0858 C.ar    1  UNL1        0.0116
     22 C         138.3398  140.6719  163.5865 C.ar    1  UNL1        0.0206
     23 C         138.6703  139.4874  167.3598 C.1     1  UNL1        0.1004
     24 N         138.6281  139.5030  168.8591 N.1     1  UNL1       -0.1908
     25 C         143.1558  145.1036  163.6903 C.3     1  UNL1        0.0769
     26 C         144.0781  144.2782  164.5379 C.3     1  UNL1        0.0437
     27 C         143.7376  142.8500  164.8449 C.ar    1  UNL1       -0.0186
     28 C         142.4964  142.5253  165.6220 C.ar    1  UNL1       -0.0041
     29 C         142.1559  141.0970  165.9290 C.ar    1  UNL1        0.0020
     30 C         143.0567  139.9935  165.4590 C.ar    1  UNL1        0.0296
     31 C         144.2980  140.3184  164.6818 C.ar    1  UNL1        0.1398
     32 F         145.1988  139.2149  164.2118 F       1  UNL1       -0.2042
     33 C         144.6384  141.7466  164.3748 C.ar    1  UNL1        0.0254
@<TRIPOS>BOND
     1    12    13    1
     2    13    11    1
     3    11    10    1
     4    10     1    1
     5     1     2    1
     6     2     3    1
     7     3     4    1
     8     4     5    1
     9     5    25    1
    10    25    26    1
    11    26    27    1
    12    27    28   ar
    13    28    29   ar
    14    29    30   ar
    15    30    31   ar
    16    31    32    1
    17    31    33   ar
    18     5     6    1
    19     6     7    1
    20     7     8    1
    21     7     9    1
    22    13    14    1
    23    14    15    2
    24    14    16    2
    25    14    17    1
    26    17    18   ar
    27    18    19   ar
    28    19    20   ar
    29    20    23    1
    30    23    24    3
    31    20    21   ar
    32    21    22   ar
    33     8     1    1
    34    22    17   ar
    35     9     3    1
    36    33    27   ar
@<TRIPOS>MOLECULE
*****
 33 36 0 0 0
SMALL
GASTEIGER

@<TRIPOS>ATOM
      1 N         142.6591  144.1421  162.6256 N.3     1  UNL1       -0.2673
      2 C         143.0580  143.1652  161.5596 C.3     1  UNL1        0.1035
      3 C         142.0060  142.4107  160.8020 C.3     1  UNL1        0.1470
      4 C         140.9540  141.6562  160.0444 C.3     1  UNL1        0.1035
      5 N         139.5030  141.8786  160.3528 N.3     1  UNL1       -0.2682
      6 C         139.1040  142.8555  161.4189 C.3     1  UNL1        0.1035
      7 C         140.1560  143.6100  162.1765 C.3     1  UNL1        0.1470
      8 C         141.2081  144.3645  162.9341 C.3     1  UNL1        0.1035
      9 O         140.5550  142.6331  161.1105 O.3     1  UNL1       -0.3530
     10 C         143.7111  144.8966  163.3832 C.3     1  UNL1        0.0916
     11 C         144.2902  144.3182  164.6402 C.3     1  UNL1        0.1131
     12 C         145.1222  141.8920  164.2260 C.3     1  UNL1        0.1149
     13 N         144.1850  142.8456  164.9060 N.3     1  UNL1       -0.1526
     14 S         143.1427  142.3267  165.8517 S.O2    1  UNL1        0.0634
     15 O         143.8252  143.0281  166.9886 O.2     1  UNL1       -0.1528
     16 O         142.4603  141.6254  164.7148 O.2     1  UNL1       -0.1528
     17 C         142.1005  141.8079  166.7974 C.ar    1  UNL1        0.1222
     18 C         141.2693  140.6182  166.4182 C.ar    1  UNL1        0.0206
     19 C         140.2270  140.0994  167.3640 C.ar    1  UNL1        0.0116
     20 C         140.0159  140.7701  168.6889 C.ar    1  UNL1        0.0685
     21 C         140.8471  141.9598  169.0681 C.ar    1  UNL1        0.0116
     22 C         141.8894  142.4787  168.1224 C.ar    1  UNL1        0.0206
     23 C         138.9736  140.2513  169.6346 C.1     1  UNL1        0.1004
     24 N         137.9313  139.7324  170.5804 N.1     1  UNL1       -0.1908
     25 C         138.4510  141.1241  159.5953 C.3     1  UNL1        0.0769
     26 C         137.7265  139.9855  160.2502 C.3     1  UNL1        0.0437
     27 C         138.2546  139.3936  161.5233 C.ar    1  UNL1       -0.0186
     28 C         139.2707  138.2914  161.4729 C.ar    1  UNL1       -0.0041
     29 C         139.7989  137.6995  162.7460 C.ar    1  UNL1        0.0020
     30 C         139.3110  138.2098  164.0694 C.ar    1  UNL1        0.0296
     31 C         138.2948  139.3121  164.1197 C.ar    1  UNL1        0.1398
     32 F         137.8068  139.8225  165.4431 F       1  UNL1       -0.2042
     33 C         137.7667  139.9040  162.8467 C.ar    1  UNL1        0.0254
@<TRIPOS>BOND
     1    12    13    1
     2    13    11    1
     3    11    10    1
     4    10     1    1
     5     1     2    1
     6     2     3    1
     7     3     4    1
     8     4     5    1
     9     5    25    1
    10    25    26    1
    11    26    27    1
    12    27    28   ar
    13    28    29   ar
    14    29    30   ar
    15    30    31   ar
    16    31    32    1
    17    31    33   ar
    18     5     6    1
    19     6     7    1
    20     7     8    1
    21     7     9    1
    22    13    14    1
    23    14    15    2
    24    14    16    2
    25    14    17    1
    26    17    18   ar
    27    18    19   ar
    28    19    20   ar
    29    20    23    1
    30    23    24    3
    31    20    21   ar
    32    21    22   ar
    33     8     1    1
    34    22    17   ar
    35     9     3    1
    36    33    27   ar
@<TRIPOS>MOLECULE
*****
 33 36 0 0 0
SMALL
GASTEIGER

@<TRIPOS>ATOM
      1 N         138.8095  140.5665  159.6720 N.3     1  UNL1       -0.2673
      2 C         138.0532  140.0144  160.8439 C.3     1  UNL1        0.1035
      3 C         137.7233  140.9004  162.0084 C.3     1  UNL1        0.1470
      4 C         137.3934  141.7864  163.1730 C.3     1  UNL1        0.1035
      5 N         137.8198  143.2245  163.1657 N.3     1  UNL1       -0.2682
      6 C         138.5761  143.7766  161.9938 C.3     1  UNL1        0.1035
      7 C         138.9060  142.8906  160.8293 C.3     1  UNL1        0.1470
      8 C         139.2358  142.0046  159.6647 C.3     1  UNL1        0.1035
      9 O         138.1497  142.3385  162.0011 O.3     1  UNL1       -0.3530
     10 C         139.1394  139.6805  158.5074 C.3     1  UNL1        0.0916
     11 C         139.8339  138.3706  158.7347 C.3     1  UNL1        0.1131
     12 C         142.3678  138.2543  158.1727 C.3     1  UNL1        0.1149
     13 N         141.2647  138.3484  159.1847 N.3     1  UNL1       -0.1526
     14 S         141.5922  138.4203  160.6467 S.O2    1  UNL1        0.0634
     15 O         140.3648  137.6175  160.9612 O.2     1  UNL1       -0.1528
     16 O         142.8197  139.2230  160.3323 O.2     1  UNL1       -0.1528
     17 C         141.9198  138.4921  162.1088 C.ar    1  UNL1        0.1222
     18 C         141.0941  137.7279  163.1008 C.ar    1  UNL1        0.0206
     19 C         141.4217  137.7998  164.5629 C.ar    1  UNL1        0.0116
     20 C         142.5750  138.6359  165.0328 C.ar    1  UNL1        0.0685
     21 C         143.4008  139.4001  164.0408 C.ar    1  UNL1        0.0116
     22 C         143.0732  139.3283  162.5787 C.ar    1  UNL1        0.0206
     23 C         142.9026  138.7078  166.4949 C.1     1  UNL1        0.1004
     24 N         143.2302  138.7796  167.9569 N.1     1  UNL1       -0.1908
     25 C         137.4899  144.1105  164.3302 C.3     1  UNL1        0.0769
     26 C         138.5922  144.7251  165.1409 C.3     1  UNL1        0.0437
     27 C         139.9529  144.0940  165.1570 C.ar    1  UNL1       -0.0186
     28 C         140.2112  142.8905  166.0142 C.ar    1  UNL1       -0.0041
     29 C         141.5719  142.2593  166.0303 C.ar    1  UNL1        0.0020
     30 C         142.6742  142.8317  165.1893 C.ar    1  UNL1        0.0296
     31 C         142.4158  144.0353  164.3322 C.ar    1  UNL1        0.1398
     32 F         143.5181  144.6077  163.4912 F       1  UNL1       -0.2042
     33 C         141.0552  144.6664  164.3160 C.ar    1  UNL1        0.0254
@<TRIPOS>BOND
     1    12    13    1
     2    13    11    1
     3    11    10    1
     4    10     1    1
     5     1     2    1
     6     2     3    1
     7     3     4    1
     8     4     5    1
     9     5    25    1
    10    25    26    1
    11    26    27    1
    12    27    28   ar
    13    28    29   ar
    14    29    30   ar
    15    30    31   ar
    16    31    32    1
    17    31    33   ar
    18     5     6    1
    19     6     7    1
    20     7     8    1
    21     7     9    1
    22    13    14    1
    23    14    15    2
    24    14    16    2
    25    14    17    1
    26    17    18   ar
    27    18    19   ar
    28    19    20   ar
    29    20    23    1
    30    23    24    3
    31    20    21   ar
    32    21    22   ar
    33     8     1    1
    34    22    17   ar
    35     9     3    1
    36    33    27   ar
@<TRIPOS>MOLECULE
*****
 33 36 0 0 0
SMALL
GASTEIGER

@<TRIPOS>ATOM
      1 N         140.2596  140.4293  159.1666 N.3     1  UNL1       -0.2673
      2 C         140.5058  141.8959  158.9705 C.3     1  UNL1        0.1035
      3 C         139.9864  142.8840  159.9724 C.3     1  UNL1        0.1470
      4 C         139.4670  143.8723  160.9742 C.3     1  UNL1        0.1035
      5 N         138.7014  143.3939  162.1721 N.3     1  UNL1       -0.2682
      6 C         138.4552  141.9272  162.3682 C.3     1  UNL1        0.1035
      7 C         138.9746  140.9391  161.3663 C.3     1  UNL1        0.1470
      8 C         139.4940  139.9509  160.3645 C.3     1  UNL1        0.1035
      9 O         139.2208  142.4056  161.1703 O.3     1  UNL1       -0.3530
     10 C         140.7790  139.4410  158.1647 C.3     1  UNL1        0.0916
     11 C         142.1365  138.8300  158.3483 C.3     1  UNL1        0.1131
     12 C         144.2014  140.4011  158.4827 C.3     1  UNL1        0.1149
     13 N         143.1759  139.5426  159.1619 N.3     1  UNL1       -0.1526
     14 S         143.1899  139.3965  160.6547 S.O2    1  UNL1        0.0634
     15 O         143.3618  140.8797  160.7982 O.2     1  UNL1       -0.1528
     16 O         143.0179  137.9134  160.5112 O.2     1  UNL1       -0.1528
     17 C         143.2038  139.2505  162.1475 C.ar    1  UNL1        0.1222
     18 C         144.3557  139.7892  162.9431 C.ar    1  UNL1        0.0206
     19 C         144.3696  139.6432  164.4359 C.ar    1  UNL1        0.0116
     20 C         143.2317  138.9585  165.1331 C.ar    1  UNL1        0.0685
     21 C         142.0797  138.4198  164.3376 C.ar    1  UNL1        0.0116
     22 C         142.0658  138.5658  162.8448 C.ar    1  UNL1        0.0206
     23 C         143.2456  138.8125  166.6260 C.1     1  UNL1        0.1004
     24 N         143.2595  138.6664  168.1188 N.1     1  UNL1       -0.1908
     25 C         138.1821  144.3821  163.1740 C.3     1  UNL1        0.0769
     26 C         139.0296  144.7768  164.3470 C.3     1  UNL1        0.0437
     27 C         140.4528  144.3110  164.4345 C.ar    1  UNL1       -0.0186
     28 C         140.7821  143.0374  165.1551 C.ar    1  UNL1       -0.0041
     29 C         142.2053  142.5716  165.2427 C.ar    1  UNL1        0.0020
     30 C         143.2991  143.3795  164.6096 C.ar    1  UNL1        0.0296
     31 C         142.9697  144.6533  163.8890 C.ar    1  UNL1        0.1398
     32 F         144.0636  145.4612  163.2560 F       1  UNL1       -0.2042
     33 C         141.5466  145.1190  163.8015 C.ar    1  UNL1        0.0254
@<TRIPOS>BOND
     1    12    13    1
     2    13    11    1
     3    11    10    1
     4    10     1    1
     5     1     2    1
     6     2     3    1
     7     3     4    1
     8     4     5    1
     9     5    25    1
    10    25    26    1
    11    26    27    1
    12    27    28   ar
    13    28    29   ar
    14    29    30   ar
    15    30    31   ar
    16    31    32    1
    17    31    33   ar
    18     5     6    1
    19     6     7    1
    20     7     8    1
    21     7     9    1
    22    13    14    1
    23    14    15    2
    24    14    16    2
    25    14    17    1
    26    17    18   ar
    27    18    19   ar
    28    19    20   ar
    29    20    23    1
    30    23    24    3
    31    20    21   ar
    32    21    22   ar
    33     8     1    1
    34    22    17   ar
    35     9     3    1
    36    33    27   ar
@<TRIPOS>MOLECULE
*****
 33 36 0 0 0
SMALL
GASTEIGER

@<TRIPOS>ATOM
      1 N         142.4148  144.3270  162.7304 N.3     1  UNL1       -0.2673
      2 C         140.9503  144.3071  163.0542 C.3     1  UNL1        0.1035
      3 C         139.9680  143.7754  162.0531 C.3     1  UNL1        0.1470
      4 C         138.9856  143.2436  161.0520 C.3     1  UNL1        0.1035
      5 N         139.4678  142.7317  159.7270 N.3     1  UNL1       -0.2682
      6 C         140.9323  142.7516  159.4032 C.3     1  UNL1        0.1035
      7 C         141.9146  143.2834  160.4043 C.3     1  UNL1        0.1470
      8 C         142.8969  143.8151  161.4054 C.3     1  UNL1        0.1035
      9 O         140.4502  143.2635  160.7282 O.3     1  UNL1       -0.3530
     10 C         143.3972  144.8588  163.7315 C.3     1  UNL1        0.0916
     11 C         144.1044  143.9177  164.6611 C.3     1  UNL1        0.1131
     12 C         145.1189  141.7217  163.7133 C.3     1  UNL1        0.1149
     13 N         144.0177  142.4369  164.4383 N.3     1  UNL1       -0.1526
     14 S         142.8296  141.6712  164.9405 S.O2    1  UNL1        0.0634
     15 O         142.8527  140.8236  163.7032 O.2     1  UNL1       -0.1528
     16 O         142.8064  142.5188  166.1779 O.2     1  UNL1       -0.1528
     17 C         141.6415  140.9056  165.4427 C.ar    1  UNL1        0.1222
     18 C         140.7766  141.4863  166.5219 C.ar    1  UNL1        0.0206
     19 C         139.5885  140.7206  167.0242 C.ar    1  UNL1        0.0116
     20 C         139.2653  139.3743  166.4472 C.ar    1  UNL1        0.0685
     21 C         140.1302  138.7935  165.3680 C.ar    1  UNL1        0.0116
     22 C         141.3183  139.5592  164.8657 C.ar    1  UNL1        0.0206
     23 C         138.0772  138.6087  166.9494 C.1     1  UNL1        0.1004
     24 N         136.8891  137.8430  167.4516 N.1     1  UNL1       -0.1908
     25 C         138.4855  142.2000  158.7259 C.3     1  UNL1        0.0769
     26 C         138.2803  140.7203  158.5894 C.3     1  UNL1        0.0437
     27 C         138.5843  139.8113  159.7432 C.ar    1  UNL1       -0.0186
     28 C         137.5309  139.5287  160.7730 C.ar    1  UNL1       -0.0041
     29 C         137.8348  138.6197  161.9269 C.ar    1  UNL1        0.0020
     30 C         139.1921  137.9934  162.0510 C.ar    1  UNL1        0.0296
     31 C         140.2455  138.2761  161.0211 C.ar    1  UNL1        0.1398
     32 F         141.6028  137.6497  161.1452 F       1  UNL1       -0.2042
     33 C         139.9416  139.1850  159.8673 C.ar    1  UNL1        0.0254
@<TRIPOS>BOND
     1    12    13    1
     2    13    11    1
     3    11    10    1
     4    10     1    1
     5     1     2    1
     6     2     3    1
     7     3     4    1
     8     4     5    1
     9     5    25    1
    10    25    26    1
    11    26    27    1
    12    27    28   ar
    13    28    29   ar
    14    29    30   ar
    15    30    31   ar
    16    31    32    1
    17    31    33   ar
    18     5     6    1
    19     6     7    1
    20     7     8    1
    21     7     9    1
    22    13    14    1
    23    14    15    2
    24    14    16    2
    25    14    17    1
    26    17    18   ar
    27    18    19   ar
    28    19    20   ar
    29    20    23    1
    30    23    24    3
    31    20    21   ar
    32    21    22   ar
    33     8     1    1
    34    22    17   ar
    35     9     3    1
    36    33    27   ar
@<TRIPOS>MOLECULE
*****
 33 36 0 0 0
SMALL
GASTEIGER

@<TRIPOS>ATOM
      1 N         144.2366  141.6900  159.6370 N.3     1  UNL1       -0.2673
      2 C         144.8842  142.4375  160.7647 C.3     1  UNL1        0.1035
      3 C         145.0363  141.7856  162.1070 C.3     1  UNL1        0.1470
      4 C         145.1884  141.1337  163.4494 C.3     1  UNL1        0.1035
      5 N         144.6930  139.7342  163.6640 N.3     1  UNL1       -0.2682
      6 C         144.0453  138.9867  162.5363 C.3     1  UNL1        0.1035
      7 C         143.8932  139.6386  161.1940 C.3     1  UNL1        0.1470
      8 C         143.7411  140.2905  159.8516 C.3     1  UNL1        0.1035
      9 O         144.5408  140.3861  162.3217 O.3     1  UNL1       -0.3530
     10 C         144.0844  142.3419  158.2946 C.3     1  UNL1        0.0916
     11 C         143.1410  143.4953  158.1237 C.3     1  UNL1        0.1131
     12 C         140.7910  142.7734  157.2830 C.3     1  UNL1        0.1149
     13 N         141.6736  143.3073  158.3720 N.3     1  UNL1       -0.1526
     14 S         141.0889  143.6531  159.7093 S.O2    1  UNL1        0.0634
     15 O         140.0168  142.6238  159.5068 O.2     1  UNL1       -0.1528
     16 O         142.1610  144.6824  159.9119 O.2     1  UNL1       -0.1528
     17 C         140.5042  143.9990  161.0467 C.ar    1  UNL1        0.1222
     18 C         141.3155  144.7739  162.0422 C.ar    1  UNL1        0.0206
     19 C         140.7308  145.1197  163.3796 C.ar    1  UNL1        0.0116
     20 C         139.3348  144.6907  163.7214 C.ar    1  UNL1        0.0685
     21 C         138.5233  143.9158  162.7258 C.ar    1  UNL1        0.0116
     22 C         139.1080  143.5699  161.3884 C.ar    1  UNL1        0.0206
     23 C         138.7501  145.0366  165.0587 C.1     1  UNL1        0.1004
     24 N         138.1654  145.3824  166.3961 N.1     1  UNL1       -0.1908
     25 C         144.8451  139.0823  165.0064 C.3     1  UNL1        0.0769
     26 C         143.6291  138.6704  165.7822 C.3     1  UNL1        0.0437
     27 C         142.8878  139.6805  166.6067 C.ar    1  UNL1       -0.0186
     28 C         142.6401  139.4233  168.0636 C.ar    1  UNL1       -0.0041
     29 C         141.8987  140.4335  168.8882 C.ar    1  UNL1        0.0020
     30 C         141.4050  141.7009  168.2558 C.ar    1  UNL1        0.0296
     31 C         141.6527  141.9581  166.7989 C.ar    1  UNL1        0.1398
     32 F         141.1589  143.2256  166.1666 F       1  UNL1       -0.2042
     33 C         142.3940  140.9480  165.9744 C.ar    1  UNL1        0.0254
@<TRIPOS>BOND
     1    12    13    1
     2    13    11    1
     3    11    10    1
     4    10     1    1
     5     1     2    1
     6     2     3    1
     7     3     4    1
     8     4     5    1
     9     5    25    1
    10    25    26    1
    11    26    27    1
    12    27    28   ar
    13    28    29   ar
    14    29    30   ar
    15    30    31   ar
    16    31    32    1
    17    31    33   ar
    18     5     6    1
    19     6     7    1
    20     7     8    1
    21     7     9    1
    22    13    14    1
    23    14    15    2
    24    14    16    2
    25    14    17    1
    26    17    18   ar
    27    18    19   ar
    28    19    20   ar
    29    20    23    1
    30    23    24    3
    31    20    21   ar
    32    21    22   ar
    33     8     1    1
    34    22    17   ar
    35     9     3    1
    36    33    27   ar
