@<TRIPOS>MOLECULE
*****
 24 25 0 0 0
SMALL
GASTEIGER

@<TRIPOS>ATOM
      1 N         142.2926  141.8501  161.1640 N.3     1  UNL1       -0.2711
      2 C         141.2393  141.0192  160.4931 C.3     1  UNL1        0.0939
      3 C         140.2192  140.2921  161.3181 C.3     1  UNL1        0.1123
      4 N         140.2524  140.3958  162.8141 N.am    1  UNL1       -0.2612
      5 C         139.2323  139.6687  163.6392 C.2     1  UNL1        0.3072
      6 O         138.1791  138.8378  162.9682 O.2     1  UNL1       -0.2523
      7 N         139.2655  139.7725  165.1352 N.am    1  UNL1       -0.2640
      8 C         140.3188  140.6034  165.8062 C.3     1  UNL1        0.0955
      9 C         140.3520  140.7072  167.3022 C.3     1  UNL1        0.0327
     10 C         139.3319  139.9801  168.1273 C.3     1  UNL1        0.1025
     11 C         138.2787  139.1492  167.4563 C.3     1  UNL1        0.0327
     12 C         138.2454  139.0454  165.9603 C.3     1  UNL1        0.0955
     13 C         141.3057  141.2267  163.4851 C.3     1  UNL1        0.1123
     14 C         142.3258  141.9538  162.6600 C.3     1  UNL1        0.0939
     15 C         142.8993  143.2685  159.0736 C.3     1  UNL1        0.0173
     16 C         143.3127  142.5772  160.3389 C.3     1  UNL1        0.0577
     17 C         144.7461  142.6130  160.7792 C.3     1  UNL1        0.0173
     18 C         139.3652  140.0839  169.6234 C.2     1  UNL1        0.3163
     19 O         138.2306  140.7375  170.3552 O.2     1  UNL1       -0.2501
     20 O         140.5329  139.5340  170.3876 O.3     1  UNL1       -0.4558
     21 C         141.8700  140.2082  170.3014 C.3     1  UNL1        0.1363
     22 C         141.2698  141.4688  170.8495 C.3     1  UNL1        0.0437
     23 C         142.4703  138.9476  169.7532 C.3     1  UNL1        0.0437
     24 C         143.2073  140.8824  170.2151 C.3     1  UNL1        0.0437
@<TRIPOS>BOND
     1    15    16    1
     2    16    17    1
     3    16     1    1
     4     1     2    1
     5     2     3    1
     6     3     4    1
     7     4     5   am
     8     5     6    2
     9     5     7   am
    10     7     8    1
    11     8     9    1
    12     9    10    1
    13    10    18    1
    14    18    19    2
    15    18    20    1
    16    20    21    1
    17    21    22    1
    18    21    23    1
    19    21    24    1
    20    10    11    1
    21    11    12    1
    22     4    13    1
    23    13    14    1
    24    14     1    1
    25    12     7    1
@<TRIPOS>MOLECULE
*****
 24 25 0 0 0
SMALL
GASTEIGER

@<TRIPOS>ATOM
      1 N         141.2925  143.9332  161.6900 N.3     1  UNL1       -0.2711
      2 C         142.1424  142.9950  160.8854 C.3     1  UNL1        0.0939
      3 C         142.7616  141.7957  161.5398 C.3     1  UNL1        0.1123
      4 N         142.5309  141.5345  162.9987 N.am    1  UNL1       -0.2612
      5 C         143.1501  140.3352  163.6531 C.2     1  UNL1        0.3072
      6 O         144.0001  139.3970  162.8485 O.2     1  UNL1       -0.2523
      7 N         142.9194  140.0740  165.1120 N.am    1  UNL1       -0.2640
      8 C         142.0694  141.0122  165.9166 C.3     1  UNL1        0.0955
      9 C         141.8386  140.7510  167.3756 C.3     1  UNL1        0.0327
     10 C         142.4578  139.5517  168.0299 C.3     1  UNL1        0.1025
     11 C         143.3078  138.6136  167.2254 C.3     1  UNL1        0.0327
     12 C         143.5386  138.8747  165.7664 C.3     1  UNL1        0.0955
     13 C         141.6809  142.4727  163.8033 C.3     1  UNL1        0.1123
     14 C         141.0617  143.6720  163.1489 C.3     1  UNL1        0.0939
     15 C         140.7868  145.3195  159.5517 C.3     1  UNL1        0.0173
     16 C         140.6732  145.1325  161.0356 C.3     1  UNL1        0.0577
     17 C         139.9404  146.1447  161.8652 C.3     1  UNL1        0.0173
     18 C         142.2270  139.2906  169.4889 C.2     1  UNL1        0.3163
     19 O         143.3720  138.8830  170.3682 O.2     1  UNL1       -0.2501
     20 O         140.8514  139.4370  170.0686 O.3     1  UNL1       -0.4558
     21 C         140.2608  140.8020  170.2629 C.3     1  UNL1        0.1363
     22 C         139.0198  140.3678  169.5409 C.3     1  UNL1        0.0437
     23 C         141.5018  141.2362  170.9849 C.3     1  UNL1        0.0437
     24 C         139.6701  142.1671  170.4572 C.3     1  UNL1        0.0437
@<TRIPOS>BOND
     1    15    16    1
     2    16    17    1
     3    16     1    1
     4     1     2    1
     5     2     3    1
     6     3     4    1
     7     4     5   am
     8     5     6    2
     9     5     7   am
    10     7     8    1
    11     8     9    1
    12     9    10    1
    13    10    18    1
    14    18    19    2
    15    18    20    1
    16    20    21    1
    17    21    22    1
    18    21    23    1
    19    21    24    1
    20    10    11    1
    21    11    12    1
    22     4    13    1
    23    13    14    1
    24    14     1    1
    25    12     7    1
@<TRIPOS>MOLECULE
*****
 24 25 0 0 0
SMALL
GASTEIGER

@<TRIPOS>ATOM
      1 N         140.5392  142.4241  161.4843 N.3     1  UNL1       -0.2711
      2 C         139.9322  141.0609  161.3318 C.3     1  UNL1        0.0939
      3 C         139.5432  140.2729  162.5474 C.3     1  UNL1        0.1123
      4 N         139.7611  140.8480  163.9154 N.am    1  UNL1       -0.2612
      5 C         139.3721  140.0600  165.1310 C.2     1  UNL1        0.3072
      6 O         138.7651  138.6968  164.9785 O.2     1  UNL1       -0.2523
      7 N         139.5900  140.6351  166.4991 N.am    1  UNL1       -0.2640
      8 C         140.1971  141.9983  166.6517 C.3     1  UNL1        0.0955
      9 C         140.4150  142.5734  168.0197 C.3     1  UNL1        0.0327
     10 C         140.0260  141.7854  169.2353 C.3     1  UNL1        0.1025
     11 C         139.4190  140.4222  169.0828 C.3     1  UNL1        0.0327
     12 C         139.2010  139.8470  167.7147 C.3     1  UNL1        0.0955
     13 C         140.3681  142.2112  164.0679 C.3     1  UNL1        0.1123
     14 C         140.7572  142.9992  162.8524 C.3     1  UNL1        0.0939
     15 C         139.8706  143.7224  159.3355 C.3     1  UNL1        0.0173
     16 C         140.9283  143.2121  160.2687 C.3     1  UNL1        0.0577
     17 C         142.3750  143.4899  159.9863 C.3     1  UNL1        0.0173
     18 C         140.2439  142.3606  170.6035 C.2     1  UNL1        0.3163
     19 O         139.1965  143.2366  171.2243 O.2     1  UNL1       -0.2501
     20 O         141.5093  142.0597  171.3507 O.3     1  UNL1       -0.4558
     21 C         142.8352  142.1823  170.6601 C.3     1  UNL1        0.1363
     22 C         142.9053  140.6896  170.5298 C.3     1  UNL1        0.0437
     23 C         142.7651  143.6749  170.7905 C.3     1  UNL1        0.0437
     24 C         144.1612  142.3048  169.9696 C.3     1  UNL1        0.0437
@<TRIPOS>BOND
     1    15    16    1
     2    16    17    1
     3    16     1    1
     4     1     2    1
     5     2     3    1
     6     3     4    1
     7     4     5   am
     8     5     6    2
     9     5     7   am
    10     7     8    1
    11     8     9    1
    12     9    10    1
    13    10    18    1
    14    18    19    2
    15    18    20    1
    16    20    21    1
    17    21    22    1
    18    21    23    1
    19    21    24    1
    20    10    11    1
    21    11    12    1
    22     4    13    1
    23    13    14    1
    24    14     1    1
    25    12     7    1
@<TRIPOS>MOLECULE
*****
 24 25 0 0 0
SMALL
GASTEIGER

@<TRIPOS>ATOM
      1 N         139.7379  140.7739  161.1676 N.3     1  UNL1       -0.2711
      2 C         141.0502  140.1136  160.8648 C.3     1  UNL1        0.0939
      3 C         141.9386  139.6614  161.9856 C.3     1  UNL1        0.1123
      4 N         141.5147  139.8696  163.4093 N.am    1  UNL1       -0.2612
      5 C         142.4032  139.4174  164.5301 C.2     1  UNL1        0.3072
      6 O         143.7155  138.7571  164.2272 O.2     1  UNL1       -0.2523
      7 N         141.9793  139.6256  165.9538 N.am    1  UNL1       -0.2640
      8 C         140.6669  140.2859  166.2567 C.3     1  UNL1        0.0955
      9 C         140.2431  140.4941  167.6804 C.3     1  UNL1        0.0327
     10 C         141.1315  140.0419  168.8012 C.3     1  UNL1        0.1025
     11 C         142.4438  139.3816  168.4984 C.3     1  UNL1        0.0327
     12 C         142.8678  139.1734  167.0746 C.3     1  UNL1        0.0955
     13 C         140.2024  140.5299  163.7122 C.3     1  UNL1        0.1123
     14 C         139.3140  140.9820  162.5913 C.3     1  UNL1        0.0939
     15 C         138.7648  142.6823  159.6976 C.3     1  UNL1        0.0173
     16 C         138.8494  141.2260  160.0468 C.3     1  UNL1        0.0577
     17 C         138.0455  140.2218  159.2752 C.3     1  UNL1        0.0173
     18 C         140.7076  140.2501  170.2250 C.2     1  UNL1        0.3163
     19 O         139.8039  139.2555  170.8915 O.2     1  UNL1       -0.2501
     20 O         141.1873  141.4528  170.9822 O.3     1  UNL1       -0.4558
     21 C         140.8844  142.8303  170.4716 C.3     1  UNL1        0.1363
     22 C         142.3420  143.0471  170.1918 C.3     1  UNL1        0.0437
     23 C         139.4268  142.6135  170.7515 C.3     1  UNL1        0.0437
     24 C         140.5816  144.2079  169.9611 C.3     1  UNL1        0.0437
@<TRIPOS>BOND
     1    15    16    1
     2    16    17    1
     3    16     1    1
     4     1     2    1
     5     2     3    1
     6     3     4    1
     7     4     5   am
     8     5     6    2
     9     5     7   am
    10     7     8    1
    11     8     9    1
    12     9    10    1
    13    10    18    1
    14    18    19    2
    15    18    20    1
    16    20    21    1
    17    21    22    1
    18    21    23    1
    19    21    24    1
    20    10    11    1
    21    11    12    1
    22     4    13    1
    23    13    14    1
    24    14     1    1
    25    12     7    1
@<TRIPOS>MOLECULE
*****
 24 25 0 0 0
SMALL
GASTEIGER

@<TRIPOS>ATOM
      1 N         142.8600  143.4974  158.7056 N.3     1  UNL1       -0.2711
      2 C         141.8986  144.6124  158.4187 C.3     1  UNL1        0.0939
      3 C         140.9783  145.1050  159.4959 C.3     1  UNL1        0.1123
      4 N         141.0194  144.4827  160.8600 N.am    1  UNL1       -0.2612
      5 C         140.0991  144.9753  161.9372 C.2     1  UNL1        0.3072
      6 O         139.1377  146.0903  161.6503 O.2     1  UNL1       -0.2523
      7 N         140.1402  144.3529  163.3013 N.am    1  UNL1       -0.2640
      8 C         141.1016  143.2378  163.5884 C.3     1  UNL1        0.0955
      9 C         141.1427  142.6155  164.9525 C.3     1  UNL1        0.0327
     10 C         140.2224  143.1081  166.0297 C.3     1  UNL1        0.1025
     11 C         139.2610  144.2231  165.7427 C.3     1  UNL1        0.0327
     12 C         139.2199  144.8456  164.3785 C.3     1  UNL1        0.0955
     13 C         141.9808  143.3676  161.1470 C.3     1  UNL1        0.1123
     14 C         142.9011  142.8750  160.0698 C.3     1  UNL1        0.0939
     15 C         143.3457  143.0470  156.1934 C.3     1  UNL1        0.0173
     16 C         143.7803  143.0047  157.6285 C.3     1  UNL1        0.0577
     17 C         145.1352  142.4699  157.9863 C.3     1  UNL1        0.0173
     18 C         140.2635  142.4857  167.3939 C.2     1  UNL1        0.3163
     19 O         140.4471  143.3488  168.6068 O.2     1  UNL1       -0.2501
     20 O         140.1211  141.0001  167.5450 O.3     1  UNL1       -0.4558
     21 C         140.6698  140.3140  168.7608 C.3     1  UNL1        0.1363
     22 C         139.3069  140.3333  169.3868 C.3     1  UNL1        0.0437
     23 C         142.0328  140.2947  168.1348 C.3     1  UNL1        0.0437
     24 C         141.2185  139.6279  169.9766 C.3     1  UNL1        0.0437
@<TRIPOS>BOND
     1    15    16    1
     2    16    17    1
     3    16     1    1
     4     1     2    1
     5     2     3    1
     6     3     4    1
     7     4     5   am
     8     5     6    2
     9     5     7   am
    10     7     8    1
    11     8     9    1
    12     9    10    1
    13    10    18    1
    14    18    19    2
    15    18    20    1
    16    20    21    1
    17    21    22    1
    18    21    23    1
    19    21    24    1
    20    10    11    1
    21    11    12    1
    22     4    13    1
    23    13    14    1
    24    14     1    1
    25    12     7    1
@<TRIPOS>MOLECULE
*****
 24 25 0 0 0
SMALL
GASTEIGER

@<TRIPOS>ATOM
      1 N         140.7992  143.5195  160.0971 N.3     1  UNL1       -0.2711
      2 C         139.3886  143.0340  159.9401 C.3     1  UNL1        0.0939
      3 C         138.7300  142.2710  161.0509 C.3     1  UNL1        0.1123
      4 N         139.4819  141.9934  162.3188 N.am    1  UNL1       -0.2612
      5 C         138.8232  141.2304  163.4296 C.2     1  UNL1        0.3072
      6 O         137.4127  140.7450  163.2726 O.2     1  UNL1       -0.2523
      7 N         139.5751  140.9528  164.6975 N.am    1  UNL1       -0.2640
      8 C         140.9857  141.4383  164.8546 C.3     1  UNL1        0.0955
      9 C         141.7375  141.1607  166.1225 C.3     1  UNL1        0.0327
     10 C         141.0789  140.3977  167.2334 C.3     1  UNL1        0.1025
     11 C         139.6684  139.9123  167.0763 C.3     1  UNL1        0.0327
     12 C         138.9164  140.1898  165.8084 C.3     1  UNL1        0.0955
     13 C         140.8924  142.4789  162.4759 C.3     1  UNL1        0.1123
     14 C         141.5510  143.2419  161.3650 C.3     1  UNL1        0.0939
     15 C         142.7547  143.7976  158.4094 C.3     1  UNL1        0.0173
     16 C         141.4578  144.2825  158.9863 C.3     1  UNL1        0.0577
     17 C         140.8196  145.5305  158.4523 C.3     1  UNL1        0.0173
     18 C         141.8308  140.1201  168.5013 C.2     1  UNL1        0.3163
     19 O         143.0076  139.1900  168.4871 O.2     1  UNL1       -0.2501
     20 O         141.4060  140.7727  169.7834 O.3     1  UNL1       -0.4558
     21 C         141.0469  142.2289  169.8006 C.3     1  UNL1        0.1363
     22 C         142.4657  142.5827  169.4660 C.3     1  UNL1        0.0437
     23 C         139.6282  141.8751  170.1353 C.3     1  UNL1        0.0437
     24 C         140.6879  143.6853  169.8179 C.3     1  UNL1        0.0437
@<TRIPOS>BOND
     1    15    16    1
     2    16    17    1
     3    16     1    1
     4     1     2    1
     5     2     3    1
     6     3     4    1
     7     4     5   am
     8     5     6    2
     9     5     7   am
    10     7     8    1
    11     8     9    1
    12     9    10    1
    13    10    18    1
    14    18    19    2
    15    18    20    1
    16    20    21    1
    17    21    22    1
    18    21    23    1
    19    21    24    1
    20    10    11    1
    21    11    12    1
    22     4    13    1
    23    13    14    1
    24    14     1    1
    25    12     7    1
@<TRIPOS>MOLECULE
*****
 24 25 0 0 0
SMALL
GASTEIGER

@<TRIPOS>ATOM
      1 N         141.0479  138.9791  160.4308 N.3     1  UNL1       -0.2711
      2 C         139.6051  139.3709  160.5527 C.3     1  UNL1        0.0939
      3 C         139.0175  139.6581  161.9026 C.3     1  UNL1        0.1123
      4 N         139.8726  139.5535  163.1305 N.am    1  UNL1       -0.2612
      5 C         139.2849  139.8407  164.4804 C.2     1  UNL1        0.3072
      6 O         137.8422  140.2325  164.6024 O.2     1  UNL1       -0.2523
      7 N         140.1400  139.7361  165.7083 N.am    1  UNL1       -0.2640
      8 C         141.5829  139.3443  165.5864 C.3     1  UNL1        0.0955
      9 C         142.4380  139.2397  166.8143 C.3     1  UNL1        0.0327
     10 C         141.8503  139.5269  168.1642 C.3     1  UNL1        0.1025
     11 C         140.4076  139.9187  168.2862 C.3     1  UNL1        0.0327
     12 C         139.5524  140.0233  167.0582 C.3     1  UNL1        0.0955
     13 C         141.3153  139.1617  163.0086 C.3     1  UNL1        0.1123
     14 C         141.9030  138.8745  161.6587 C.3     1  UNL1        0.0939
     15 C         143.0736  139.0167  158.8044 C.3     1  UNL1        0.0173
     16 C         141.6355  138.6919  159.0809 C.3     1  UNL1        0.0577
     17 C         140.7851  138.0799  158.0075 C.3     1  UNL1        0.0173
     18 C         142.7055  139.4223  169.3922 C.2     1  UNL1        0.3163
     19 O         142.8729  138.0993  170.0790 O.2     1  UNL1       -0.2501
     20 O         143.3932  140.6406  169.9332 O.3     1  UNL1       -0.4558
     21 C         142.6587  141.9464  170.0055 C.3     1  UNL1        0.1363
     22 C         143.4233  142.4425  168.8142 C.3     1  UNL1        0.0437
     23 C         141.8942  141.4503  171.1969 C.3     1  UNL1        0.0437
     24 C         141.9242  143.2523  170.0779 C.3     1  UNL1        0.0437
@<TRIPOS>BOND
     1    15    16    1
     2    16    17    1
     3    16     1    1
     4     1     2    1
     5     2     3    1
     6     3     4    1
     7     4     5   am
     8     5     6    2
     9     5     7   am
    10     7     8    1
    11     8     9    1
    12     9    10    1
    13    10    18    1
    14    18    19    2
    15    18    20    1
    16    20    21    1
    17    21    22    1
    18    21    23    1
    19    21    24    1
    20    10    11    1
    21    11    12    1
    22     4    13    1
    23    13    14    1
    24    14     1    1
    25    12     7    1
@<TRIPOS>MOLECULE
*****
 24 25 0 0 0
SMALL
GASTEIGER

@<TRIPOS>ATOM
      1 N         140.6323  141.9923  168.6201 N.3     1  UNL1       -0.2711
      2 C         139.7596  140.8912  169.1452 C.3     1  UNL1        0.0939
      3 C         139.1983  139.8661  168.2050 C.3     1  UNL1        0.1123
      4 N         139.5098  139.9420  166.7397 N.am    1  UNL1       -0.2612
      5 C         138.9485  138.9168  165.7995 C.2     1  UNL1        0.3072
      6 O         138.0757  137.8157  166.3247 O.2     1  UNL1       -0.2523
      7 N         139.2599  138.9927  164.3342 N.am    1  UNL1       -0.2640
      8 C         140.1328  140.0939  163.8090 C.3     1  UNL1        0.0955
      9 C         140.4442  140.1698  162.3437 C.3     1  UNL1        0.0327
     10 C         139.8829  139.1446  161.4036 C.3     1  UNL1        0.1025
     11 C         139.0102  138.0435  161.9287 C.3     1  UNL1        0.0327
     12 C         138.6986  137.9676  163.3941 C.3     1  UNL1        0.0955
     13 C         140.3825  141.0431  166.2146 C.3     1  UNL1        0.1123
     14 C         140.9438  142.0683  167.1548 C.3     1  UNL1        0.0939
     15 C         142.5902  142.8676  170.0866 C.3     1  UNL1        0.0173
     16 C         141.1936  143.0175  169.5603 C.3     1  UNL1        0.0577
     17 C         140.3584  144.1927  169.9742 C.3     1  UNL1        0.0173
     18 C         140.1945  139.2206  159.9382 C.2     1  UNL1        0.3163
     19 O         139.2553  139.9290  159.0075 O.2     1  UNL1       -0.2501
     20 O         141.4451  138.5882  159.4035 O.3     1  UNL1       -0.4558
     21 C         142.7784  138.9549  159.9847 C.3     1  UNL1        0.1363
     22 C         142.8875  137.5894  160.5958 C.3     1  UNL1        0.0437
     23 C         142.6693  140.3203  159.3736 C.3     1  UNL1        0.0437
     24 C         144.1118  139.3215  160.5659 C.3     1  UNL1        0.0437
@<TRIPOS>BOND
     1    15    16    1
     2    16    17    1
     3    16     1    1
     4     1     2    1
     5     2     3    1
     6     3     4    1
     7     4     5   am
     8     5     6    2
     9     5     7   am
    10     7     8    1
    11     8     9    1
    12     9    10    1
    13    10    18    1
    14    18    19    2
    15    18    20    1
    16    20    21    1
    17    21    22    1
    18    21    23    1
    19    21    24    1
    20    10    11    1
    21    11    12    1
    22     4    13    1
    23    13    14    1
    24    14     1    1
    25    12     7    1
@<TRIPOS>MOLECULE
*****
 24 25 0 0 0
SMALL
GASTEIGER

@<TRIPOS>ATOM
      1 N         140.7530  141.9322  168.5862 N.3     1  UNL1       -0.2711
      2 C         139.7784  140.9031  169.0774 C.3     1  UNL1        0.0939
      3 C         139.2196  139.8857  168.1273 C.3     1  UNL1        0.1123
      4 N         139.6352  139.8973  166.6861 N.am    1  UNL1       -0.2612
      5 C         139.0763  138.8799  165.7361 C.2     1  UNL1        0.3072
      6 O         138.1018  137.8509  166.2273 O.2     1  UNL1       -0.2523
      7 N         139.4920  138.8916  164.2949 N.am    1  UNL1       -0.2640
      8 C         140.4666  139.9207  163.8037 C.3     1  UNL1        0.0955
      9 C         140.8822  139.9324  162.3625 C.3     1  UNL1        0.0327
     10 C         140.3234  138.9149  161.4125 C.3     1  UNL1        0.1025
     11 C         139.3488  137.8859  161.9037 C.3     1  UNL1        0.0327
     12 C         138.9331  137.8742  163.3449 C.3     1  UNL1        0.0955
     13 C         140.6097  140.9264  166.1950 C.3     1  UNL1        0.1123
     14 C         141.1686  141.9438  167.1450 C.3     1  UNL1        0.0939
     15 C         140.4655  144.1056  169.9802 C.3     1  UNL1        0.0173
     16 C         141.3118  142.9496  169.5362 C.3     1  UNL1        0.0577
     17 C         142.7170  142.8109  170.0423 C.3     1  UNL1        0.0173
     18 C         140.7391  138.9266  159.9713 C.2     1  UNL1        0.3163
     19 O         142.0639  138.3501  159.5681 O.2     1  UNL1       -0.2501
     20 O         139.8300  139.5149  158.9332 O.3     1  UNL1       -0.4558
     21 C         139.2740  140.8956  159.1189 C.3     1  UNL1        0.1363
     22 C         137.9072  140.3163  159.3336 C.3     1  UNL1        0.0437
     23 C         140.6408  141.4749  158.9042 C.3     1  UNL1        0.0437
     24 C         138.7179  142.2763  159.3046 C.3     1  UNL1        0.0437
@<TRIPOS>BOND
     1    15    16    1
     2    16    17    1
     3    16     1    1
     4     1     2    1
     5     2     3    1
     6     3     4    1
     7     4     5   am
     8     5     6    2
     9     5     7   am
    10     7     8    1
    11     8     9    1
    12     9    10    1
    13    10    18    1
    14    18    19    2
    15    18    20    1
    16    20    21    1
    17    21    22    1
    18    21    23    1
    19    21    24    1
    20    10    11    1
    21    11    12    1
    22     4    13    1
    23    13    14    1
    24    14     1    1
    25    12     7    1
