@<TRIPOS>MOLECULE
*****
 30 33 0 0 0
SMALL
GASTEIGER

@<TRIPOS>ATOM
      1 N         141.3118  143.9237  163.6619 N.3     1  UNL1       -0.2619
      2 C         140.2319  143.4636  164.5958 C.3     1  UNL1        0.0732
      3 C         140.5910  142.7334  165.8560 C.3     1  UNL1        0.0272
      4 C         142.0300  142.4634  166.1822 C.3     1  UNL1        0.0864
      5 C         143.1099  142.9236  165.2483 C.3     1  UNL1        0.2819
      6 F         144.4797  143.1585  164.6841 F       1  UNL1       -0.2025
      7 F         143.9447  142.2751  166.3125 F       1  UNL1       -0.2025
      8 C         142.7507  143.6537  163.9882 C.3     1  UNL1        0.1401
      9 C         142.3891  141.7333  167.4424 C.ar    1  UNL1       -0.0169
     10 C         142.9431  142.4878  168.6144 C.ar    1  UNL1       -0.0010
     11 C         143.3022  141.7577  169.8746 C.ar    1  UNL1        0.0363
     12 C         143.1072  140.2730  169.9626 C.ar    1  UNL1        0.1337
     13 O         143.4664  139.5429  171.2227 O.3     1  UNL1       -0.5055
     14 C         142.5532  139.5185  168.7905 C.ar    1  UNL1        0.0363
     15 C         142.1941  140.2485  167.5305 C.ar    1  UNL1       -0.0010
     16 H         143.8124  140.0142  171.9549 H       1  UNL1        0.2922
     17 N         140.9648  145.4375  160.1047 N.am    1  UNL1       -0.2743
     18 C         139.8354  146.1173  160.8205 C.3     1  UNL1        0.0957
     19 C         139.8279  145.6330  162.2402 C.3     1  UNL1        0.0468
     20 C         140.9527  144.6538  162.4019 C.3     1  UNL1        0.1368
     21 C         141.6553  144.5329  161.0821 C.2     1  UNL1        0.2404
     22 O         142.8404  143.6608  160.7908 O.2     1  UNL1       -0.2734
     23 C         141.3381  145.6285  158.6646 C.3     1  UNL1        0.1202
     24 C         137.2645  144.6935  154.3598 C.3     1  UNL1        0.0310
     25 C         138.2829  144.9272  155.4360 C.ar    1  UNL1       -0.0219
     26 C         138.8309  146.3049  155.6636 C.ar    1  UNL1       -0.0045
     27 C         139.8493  146.5386  156.7398 C.ar    1  UNL1       -0.0029
     28 C         140.3197  145.3948  157.5884 C.ar    1  UNL1       -0.0024
     29 C         139.7717  144.0171  157.3609 C.ar    1  UNL1       -0.0029
     30 C         138.7533  143.7834  156.2847 C.ar    1  UNL1       -0.0045
@<TRIPOS>BOND
     1    24    25    1
     2    25    26   ar
     3    26    27   ar
     4    27    28   ar
     5    28    23    1
     6    23    17    1
     7    17    18    1
     8    18    19    1
     9    19    20    1
    10    20     1    1
    11     1     2    1
    12     2     3    1
    13     3     4    1
    14     4     9    1
    15     9    10   ar
    16    10    11   ar
    17    11    12   ar
    18    12    13    1
    19    12    14   ar
    20    14    15   ar
    21     4     5    1
    22     5     6    1
    23     5     7    1
    24     5     8    1
    25    20    21    1
    26    21    22    2
    27    28    29   ar
    28    29    30   ar
    29    30    25   ar
    30    21    17   am
    31     8     1    1
    32    15     9   ar
    33    13    16    1
@<TRIPOS>MOLECULE
*****
 30 33 0 0 0
SMALL
GASTEIGER

@<TRIPOS>ATOM
      1 N         141.2015  138.8321  162.2308 N.3     1  UNL1       -0.2619
      2 C         141.0630  137.6700  163.1690 C.3     1  UNL1        0.0732
      3 C         141.0539  137.8997  164.6513 C.3     1  UNL1        0.0272
      4 C         141.1833  139.2915  165.1954 C.3     1  UNL1        0.0864
      5 C         141.3218  140.4537  164.2572 C.3     1  UNL1        0.2819
      6 F         141.4757  141.8660  163.7757 F       1  UNL1       -0.2025
      7 F         141.3661  141.1738  165.5722 F       1  UNL1       -0.2025
      8 C         141.3309  140.2240  162.7749 C.3     1  UNL1        0.1401
      9 C         141.1742  139.5212  166.6777 C.ar    1  UNL1       -0.0169
     10 C         142.4483  139.4111  167.4616 C.ar    1  UNL1       -0.0010
     11 C         142.4392  139.6407  168.9439 C.ar    1  UNL1        0.0363
     12 C         141.1559  139.9806  169.6422 C.ar    1  UNL1        0.1337
     13 O         141.1467  140.2102  171.1245 O.3     1  UNL1       -0.5055
     14 C         139.8817  140.0907  168.8583 C.ar    1  UNL1        0.0363
     15 C         139.8909  139.8610  167.3761 C.ar    1  UNL1       -0.0010
     16 H         141.9427  140.1414  171.6141 H       1  UNL1        0.2922
     17 N         141.9209  137.9742  158.5144 N.am    1  UNL1       -0.2743
     18 C         140.5284  138.5239  158.4206 C.3     1  UNL1        0.0957
     19 C         140.0894  138.9122  159.8015 C.3     1  UNL1        0.0468
     20 C         141.2106  138.6025  160.7486 C.3     1  UNL1        0.1368
     21 C         142.3425  138.0227  159.9532 C.2     1  UNL1        0.2404
     22 O         143.6640  137.5709  160.5003 O.2     1  UNL1       -0.2734
     23 C         142.7468  137.4652  157.3703 C.3     1  UNL1        0.1202
     24 C         141.7962  131.9515  155.2035 C.3     1  UNL1        0.0310
     25 C         142.0338  133.3300  155.7452 C.ar    1  UNL1       -0.0219
     26 C         143.0325  133.5421  156.8440 C.ar    1  UNL1       -0.0045
     27 C         143.2702  134.9205  157.3857 C.ar    1  UNL1       -0.0029
     28 C         142.5091  136.0868  156.8286 C.ar    1  UNL1       -0.0024
     29 C         141.5104  135.8747  155.7298 C.ar    1  UNL1       -0.0029
     30 C         141.2727  134.4963  155.1881 C.ar    1  UNL1       -0.0045
@<TRIPOS>BOND
     1    24    25    1
     2    25    26   ar
     3    26    27   ar
     4    27    28   ar
     5    28    23    1
     6    23    17    1
     7    17    18    1
     8    18    19    1
     9    19    20    1
    10    20     1    1
    11     1     2    1
    12     2     3    1
    13     3     4    1
    14     4     9    1
    15     9    10   ar
    16    10    11   ar
    17    11    12   ar
    18    12    13    1
    19    12    14   ar
    20    14    15   ar
    21     4     5    1
    22     5     6    1
    23     5     7    1
    24     5     8    1
    25    20    21    1
    26    21    22    2
    27    28    29   ar
    28    29    30   ar
    29    30    25   ar
    30    21    17   am
    31     8     1    1
    32    15     9   ar
    33    13    16    1
@<TRIPOS>MOLECULE
*****
 30 33 0 0 0
SMALL
GASTEIGER

@<TRIPOS>ATOM
      1 N         142.9045  141.4464  163.3116 N.3     1  UNL1       -0.2619
      2 C         141.6988  140.7250  163.8369 C.3     1  UNL1        0.0732
      3 C         141.3310  140.8359  165.2869 C.3     1  UNL1        0.0272
      4 C         142.1690  141.6681  166.2117 C.3     1  UNL1        0.0864
      5 C         143.3748  142.3895  165.6864 C.3     1  UNL1        0.2819
      6 F         144.6006  143.2536  165.6618 F       1  UNL1       -0.2025
      7 F         143.4328  142.8004  167.1278 F       1  UNL1       -0.2025
      8 C         143.7424  142.2786  164.2364 C.3     1  UNL1        0.1401
      9 C         141.8013  141.7790  167.6617 C.ar    1  UNL1       -0.0169
     10 C         142.4709  140.8984  168.6747 C.ar    1  UNL1       -0.0010
     11 C         142.1032  141.0093  170.1247 C.ar    1  UNL1        0.0363
     12 C         141.0658  142.0008  170.5616 C.ar    1  UNL1        0.1337
     13 O         140.6981  142.1116  172.0116 O.3     1  UNL1       -0.5055
     14 C         140.3963  142.8814  169.5486 C.ar    1  UNL1        0.0363
     15 C         140.7639  142.7705  168.0987 C.ar    1  UNL1       -0.0010
     16 H         141.1164  141.5615  172.6444 H       1  UNL1        0.2922
     17 N         143.8103  141.9117  159.5662 N.am    1  UNL1       -0.2743
     18 C         143.8658  140.4182  159.6944 C.3     1  UNL1        0.0957
     19 C         143.5331  140.0621  161.1132 C.3     1  UNL1        0.0468
     20 C         143.2722  141.3355  161.8617 C.3     1  UNL1        0.1368
     21 C         143.4435  142.4786  160.9057 C.2     1  UNL1        0.2404
     22 O         143.2771  143.9332  161.2318 O.2     1  UNL1       -0.2734
     23 C         144.0752  142.6999  158.3178 C.3     1  UNL1        0.1202
     24 C         149.0387  141.6612  155.1107 C.3     1  UNL1        0.0310
     25 C         147.7978  141.9209  155.9125 C.ar    1  UNL1       -0.0219
     26 C         147.8693  142.7579  157.1551 C.ar    1  UNL1       -0.0045
     27 C         146.6284  143.0176  157.9569 C.ar    1  UNL1       -0.0029
     28 C         145.3161  142.4402  157.5160 C.ar    1  UNL1       -0.0024
     29 C         145.2446  141.6031  156.2734 C.ar    1  UNL1       -0.0029
     30 C         146.4855  141.3435  155.4716 C.ar    1  UNL1       -0.0045
@<TRIPOS>BOND
     1    24    25    1
     2    25    26   ar
     3    26    27   ar
     4    27    28   ar
     5    28    23    1
     6    23    17    1
     7    17    18    1
     8    18    19    1
     9    19    20    1
    10    20     1    1
    11     1     2    1
    12     2     3    1
    13     3     4    1
    14     4     9    1
    15     9    10   ar
    16    10    11   ar
    17    11    12   ar
    18    12    13    1
    19    12    14   ar
    20    14    15   ar
    21     4     5    1
    22     5     6    1
    23     5     7    1
    24     5     8    1
    25    20    21    1
    26    21    22    2
    27    28    29   ar
    28    29    30   ar
    29    30    25   ar
    30    21    17   am
    31     8     1    1
    32    15     9   ar
    33    13    16    1
@<TRIPOS>MOLECULE
*****
 30 33 0 0 0
SMALL
GASTEIGER

@<TRIPOS>ATOM
      1 N         140.1265  139.8155  163.3410 N.3     1  UNL1       -0.2619
      2 C         139.1194  140.8050  163.8474 C.3     1  UNL1        0.0732
      3 C         139.1398  141.2260  165.2870 C.3     1  UNL1        0.0272
      4 C         140.1673  140.6575  166.2202 C.3     1  UNL1        0.0864
      5 C         141.1745  139.6678  165.7138 C.3     1  UNL1        0.2819
      6 F         142.3278  138.7088  165.7066 F       1  UNL1       -0.2025
      7 F         141.5954  139.7558  167.1508 F       1  UNL1       -0.2025
      8 C         141.1540  139.2469  164.2742 C.3     1  UNL1        0.1401
      9 C         140.1877  141.0784  167.6598 C.ar    1  UNL1       -0.0169
     10 C         140.9006  142.3348  168.0638 C.ar    1  UNL1       -0.0010
     11 C         140.9211  142.7558  169.5033 C.ar    1  UNL1        0.0363
     12 C         140.2285  141.9203  170.5389 C.ar    1  UNL1        0.1337
     13 O         140.2490  142.3413  171.9785 O.3     1  UNL1       -0.5055
     14 C         139.5156  140.6639  170.1349 C.ar    1  UNL1        0.0363
     15 C         139.4952  140.2430  168.6955 C.ar    1  UNL1       -0.0010
     16 H         140.6943  143.1261  172.2308 H       1  UNL1        0.2922
     17 N         140.7502  139.0567  159.5860 N.am    1  UNL1       -0.2743
     18 C         139.3991  138.4367  159.7864 C.3     1  UNL1        0.0957
     19 C         139.0010  138.6455  161.2176 C.3     1  UNL1        0.0468
     20 C         140.1061  139.3945  161.9016 C.3     1  UNL1        0.1368
     21 C         141.1871  139.6486  160.8932 C.2     1  UNL1        0.2404
     22 O         142.4784  140.3683  161.1474 O.2     1  UNL1       -0.2734
     23 C         141.5279  139.0805  158.3036 C.3     1  UNL1        0.1202
     24 C         141.6688  134.2192  154.7897 C.3     1  UNL1        0.0310
     25 C         141.6336  135.4345  155.6681 C.ar    1  UNL1       -0.0219
     26 C         140.4981  136.4082  155.5562 C.ar    1  UNL1       -0.0045
     27 C         140.4629  137.6235  156.4346 C.ar    1  UNL1       -0.0029
     28 C         141.5631  137.8652  157.4251 C.ar    1  UNL1       -0.0024
     29 C         142.6986  136.8915  157.5371 C.ar    1  UNL1       -0.0029
     30 C         142.7338  135.6761  156.6586 C.ar    1  UNL1       -0.0045
@<TRIPOS>BOND
     1    24    25    1
     2    25    26   ar
     3    26    27   ar
     4    27    28   ar
     5    28    23    1
     6    23    17    1
     7    17    18    1
     8    18    19    1
     9    19    20    1
    10    20     1    1
    11     1     2    1
    12     2     3    1
    13     3     4    1
    14     4     9    1
    15     9    10   ar
    16    10    11   ar
    17    11    12   ar
    18    12    13    1
    19    12    14   ar
    20    14    15   ar
    21     4     5    1
    22     5     6    1
    23     5     7    1
    24     5     8    1
    25    20    21    1
    26    21    22    2
    27    28    29   ar
    28    29    30   ar
    29    30    25   ar
    30    21    17   am
    31     8     1    1
    32    15     9   ar
    33    13    16    1
@<TRIPOS>MOLECULE
*****
 30 33 0 0 0
SMALL
GASTEIGER

@<TRIPOS>ATOM
      1 N         140.5174  138.7740  161.1087 N.3     1  UNL1       -0.2619
      2 C         139.9066  140.0603  161.5800 C.3     1  UNL1        0.0732
      3 C         139.6105  140.2606  163.0368 C.3     1  UNL1        0.0272
      4 C         139.9251  139.1744  164.0223 C.3     1  UNL1        0.0864
      5 C         140.5359  137.8880  163.5510 C.3     1  UNL1        0.2819
      6 F         141.1135  136.5042  163.5905 F       1  UNL1       -0.2025
      7 F         140.4404  137.6077  165.0214 F       1  UNL1       -0.2025
      8 C         140.8320  137.6878  162.0942 C.3     1  UNL1        0.1401
      9 C         139.6289  139.3747  165.4791 C.ar    1  UNL1       -0.0169
     10 C         138.3363  138.8793  166.0566 C.ar    1  UNL1       -0.0010
     11 C         138.0402  139.0795  167.5134 C.ar    1  UNL1        0.0363
     12 C         139.0368  139.7752  168.3926 C.ar    1  UNL1        0.1337
     13 O         138.7406  139.9754  169.8494 O.3     1  UNL1       -0.5055
     14 C         140.3294  140.2706  167.8150 C.ar    1  UNL1        0.0363
     15 C         140.6255  140.0704  166.3583 C.ar    1  UNL1       -0.0010
     16 H         137.9331  139.6659  170.2102 H       1  UNL1        0.2922
     17 N         141.9676  138.0522  157.5815 N.am    1  UNL1       -0.2743
     18 C         140.5710  138.4789  157.2389 C.3     1  UNL1        0.0957
     19 C         139.8577  138.8013  158.5185 C.3     1  UNL1        0.0468
     20 C         140.8135  138.5737  159.6520 C.3     1  UNL1        0.1368
     21 C         142.1175  138.1108  159.0729 C.2     1  UNL1        0.2404
     22 O         143.3542  137.7668  159.8488 O.2     1  UNL1       -0.2734
     23 C         143.0281  137.6393  156.6043 C.3     1  UNL1        0.1202
     24 C         143.0911  132.0475  154.4300 C.3     1  UNL1        0.0310
     25 C         143.0753  133.4455  154.9736 C.ar    1  UNL1       -0.0219
     26 C         142.6904  134.5913  154.0854 C.ar    1  UNL1       -0.0045
     27 C         142.6747  135.9892  154.6289 C.ar    1  UNL1       -0.0029
     28 C         143.0438  136.2414  156.0607 C.ar    1  UNL1       -0.0024
     29 C         143.4288  135.0956  156.9489 C.ar    1  UNL1       -0.0029
     30 C         143.4445  133.6976  156.4054 C.ar    1  UNL1       -0.0045
@<TRIPOS>BOND
     1    24    25    1
     2    25    26   ar
     3    26    27   ar
     4    27    28   ar
     5    28    23    1
     6    23    17    1
     7    17    18    1
     8    18    19    1
     9    19    20    1
    10    20     1    1
    11     1     2    1
    12     2     3    1
    13     3     4    1
    14     4     9    1
    15     9    10   ar
    16    10    11   ar
    17    11    12   ar
    18    12    13    1
    19    12    14   ar
    20    14    15   ar
    21     4     5    1
    22     5     6    1
    23     5     7    1
    24     5     8    1
    25    20    21    1
    26    21    22    2
    27    28    29   ar
    28    29    30   ar
    29    30    25   ar
    30    21    17   am
    31     8     1    1
    32    15     9   ar
    33    13    16    1
@<TRIPOS>MOLECULE
*****
 30 33 0 0 0
SMALL
GASTEIGER

@<TRIPOS>ATOM
      1 N         141.6268  142.9639  163.4999 N.3     1  UNL1       -0.2619
      2 C         140.2739  142.5613  164.0076 C.3     1  UNL1        0.0732
      3 C         140.0999  142.1613  165.4428 C.3     1  UNL1        0.0272
      4 C         141.2788  142.1640  166.3703 C.3     1  UNL1        0.0864
      5 C         142.6317  142.5667  165.8627 C.3     1  UNL1        0.2819
      6 F         144.1013  142.8666  165.8523 F       1  UNL1       -0.2025
      7 F         142.9680  142.2709  167.2942 F       1  UNL1       -0.2025
      8 C         142.8056  142.9666  164.4275 C.3     1  UNL1        0.1401
      9 C         141.1048  141.7640  167.8055 C.ar    1  UNL1       -0.0169
     10 C         140.6820  142.7828  168.8221 C.ar    1  UNL1       -0.0010
     11 C         140.5080  142.3828  170.2573 C.ar    1  UNL1        0.0363
     12 C         140.7568  140.9640  170.6758 C.ar    1  UNL1        0.1337
     13 O         140.5828  140.5641  172.1110 O.3     1  UNL1       -0.5055
     14 C         141.1796  139.9453  169.6593 C.ar    1  UNL1        0.0363
     15 C         141.3536  140.3452  168.2242 C.ar    1  UNL1       -0.0010
     16 H         140.3187  141.2005  172.7460 H       1  UNL1        0.2922
     17 N         141.6367  144.5816  159.9717 N.am    1  UNL1       -0.2743
     18 C         142.5004  143.3772  159.7407 C.3     1  UNL1        0.0957
     19 C         142.6018  142.6245  161.0344 C.3     1  UNL1        0.0468
     20 C         141.8008  143.3639  162.0648 C.3     1  UNL1        0.1368
     21 C         141.2043  144.5734  161.4081 C.2     1  UNL1        0.2404
     22 O         140.3291  145.5953  162.0712 O.2     1  UNL1       -0.2734
     23 C         141.2698  145.6131  158.9464 C.3     1  UNL1        0.1202
     24 C         137.4184  144.2409  154.5550 C.3     1  UNL1        0.0310
     25 C         138.3813  144.5839  155.6529 C.ar    1  UNL1       -0.0219
     26 C         138.9923  145.9524  155.7141 C.ar    1  UNL1       -0.0045
     27 C         139.9552  146.2955  156.8119 C.ar    1  UNL1       -0.0029
     28 C         140.3069  145.2701  157.8486 C.ar    1  UNL1       -0.0024
     29 C         139.6958  143.9016  157.7874 C.ar    1  UNL1       -0.0029
     30 C         138.7330  143.5585  156.6896 C.ar    1  UNL1       -0.0045
@<TRIPOS>BOND
     1    24    25    1
     2    25    26   ar
     3    26    27   ar
     4    27    28   ar
     5    28    23    1
     6    23    17    1
     7    17    18    1
     8    18    19    1
     9    19    20    1
    10    20     1    1
    11     1     2    1
    12     2     3    1
    13     3     4    1
    14     4     9    1
    15     9    10   ar
    16    10    11   ar
    17    11    12   ar
    18    12    13    1
    19    12    14   ar
    20    14    15   ar
    21     4     5    1
    22     5     6    1
    23     5     7    1
    24     5     8    1
    25    20    21    1
    26    21    22    2
    27    28    29   ar
    28    29    30   ar
    29    30    25   ar
    30    21    17   am
    31     8     1    1
    32    15     9   ar
    33    13    16    1
@<TRIPOS>MOLECULE
*****
 30 33 0 0 0
SMALL
GASTEIGER

@<TRIPOS>ATOM
      1 N         141.7437  142.1483  163.2479 N.3     1  UNL1       -0.2619
      2 C         142.6508  141.0742  163.7708 C.3     1  UNL1        0.0732
      3 C         142.7476  140.8272  165.2471 C.3     1  UNL1        0.0272
      4 C         141.9373  141.6544  166.2007 C.3     1  UNL1        0.0864
      5 C         141.0302  142.7285  165.6778 C.3     1  UNL1        0.2819
      6 F         140.0369  143.8524  165.6664 F       1  UNL1       -0.2025
      7 F         140.7821  142.8719  167.1502 F       1  UNL1       -0.2025
      8 C         140.9334  142.9754  164.2015 C.3     1  UNL1        0.1401
      9 C         142.0342  141.4074  167.6771 C.ar    1  UNL1       -0.0169
     10 C         141.0925  140.4463  168.3401 C.ar    1  UNL1       -0.0010
     11 C         141.1894  140.1994  169.8164 C.ar    1  UNL1        0.0363
     12 C         142.2279  140.9136  170.6297 C.ar    1  UNL1        0.1337
     13 O         142.3247  140.6666  172.1061 O.3     1  UNL1       -0.5055
     14 C         143.1695  141.8747  169.9667 C.ar    1  UNL1        0.0363
     15 C         143.0727  142.1216  168.4904 C.ar    1  UNL1       -0.0010
     16 H         141.7365  140.0662  172.5202 H       1  UNL1        0.2922
     17 N         142.1108  143.2063  159.5316 N.am    1  UNL1       -0.2743
     18 C         140.8849  142.3443  159.4678 C.3     1  UNL1        0.0957
     19 C         140.5981  141.8430  160.8522 C.3     1  UNL1        0.0468
     20 C         141.6469  142.3952  161.7717 C.3     1  UNL1        0.1368
     21 C         142.5817  143.2378  160.9555 C.2     1  UNL1        0.2404
     22 O         143.7776  143.9812  161.4723 O.2     1  UNL1       -0.2734
     23 C         142.7531  143.9127  158.3747 C.3     1  UNL1        0.1202
     24 C         139.4454  147.3857  154.7694 C.3     1  UNL1        0.0310
     25 C         140.2723  146.5175  155.6707 C.ar    1  UNL1       -0.0219
     26 C         141.3777  145.6804  155.0985 C.ar    1  UNL1       -0.0045
     27 C         142.2046  144.8121  155.9998 C.ar    1  UNL1       -0.0029
     28 C         141.9262  144.7810  157.4734 C.ar    1  UNL1       -0.0024
     29 C         140.8209  145.6181  158.0456 C.ar    1  UNL1       -0.0029
     30 C         139.9939  146.4863  157.1443 C.ar    1  UNL1       -0.0045
@<TRIPOS>BOND
     1    24    25    1
     2    25    26   ar
     3    26    27   ar
     4    27    28   ar
     5    28    23    1
     6    23    17    1
     7    17    18    1
     8    18    19    1
     9    19    20    1
    10    20     1    1
    11     1     2    1
    12     2     3    1
    13     3     4    1
    14     4     9    1
    15     9    10   ar
    16    10    11   ar
    17    11    12   ar
    18    12    13    1
    19    12    14   ar
    20    14    15   ar
    21     4     5    1
    22     5     6    1
    23     5     7    1
    24     5     8    1
    25    20    21    1
    26    21    22    2
    27    28    29   ar
    28    29    30   ar
    29    30    25   ar
    30    21    17   am
    31     8     1    1
    32    15     9   ar
    33    13    16    1
@<TRIPOS>MOLECULE
*****
 30 33 0 0 0
SMALL
GASTEIGER

@<TRIPOS>ATOM
      1 N         142.8314  142.1095  162.7055 N.3     1  UNL1       -0.2619
      2 C         144.0376  141.4874  163.3444 C.3     1  UNL1        0.0732
      3 C         144.0370  141.1872  164.8140 C.3     1  UNL1        0.0272
      4 C         142.8303  141.5090  165.6448 C.3     1  UNL1        0.0864
      5 C         141.6241  142.1312  165.0060 C.3     1  UNL1        0.2819
      6 F         140.2523  142.7200  164.8600 F       1  UNL1       -0.2025
      7 F         141.1471  142.0354  166.4249 F       1  UNL1       -0.2025
      8 C         141.6247  142.4314  163.5363 C.3     1  UNL1        0.1401
      9 C         142.8297  141.2088  167.1145 C.ar    1  UNL1       -0.0169
     10 C         142.4332  139.8466  167.6016 C.ar    1  UNL1       -0.0010
     11 C         142.4327  139.5464  169.0712 C.ar    1  UNL1        0.0363
     12 C         142.8287  140.6084  170.0537 C.ar    1  UNL1        0.1337
     13 O         142.8281  140.3082  171.5234 O.3     1  UNL1       -0.5055
     14 C         143.2252  141.9706  169.5667 C.ar    1  UNL1        0.0363
     15 C         143.2258  142.2708  168.0971 C.ar    1  UNL1       -0.0010
     16 H         142.5804  139.4573  171.8277 H       1  UNL1        0.2922
     17 N         143.0753  142.1764  158.8324 N.am    1  UNL1       -0.2743
     18 C         142.5903  143.5672  159.1163 C.3     1  UNL1        0.0957
     19 C         142.4399  143.7114  160.6018 C.3     1  UNL1        0.0468
     20 C         142.8320  142.4097  161.2360 C.3     1  UNL1        0.1368
     21 C         143.2246  141.4611  160.1424 C.2     1  UNL1        0.2404
     22 O         143.6857  140.0457  160.3265 O.2     1  UNL1       -0.2734
     23 C         143.3608  141.6018  157.4765 C.3     1  UNL1        0.1202
     24 C         148.8974  141.9235  155.1870 C.3     1  UNL1        0.0310
     25 C         147.5133  141.8431  155.7594 C.ar    1  UNL1       -0.0219
     26 C         146.4811  140.9722  155.1066 C.ar    1  UNL1       -0.0045
     27 C         145.0970  140.8918  155.6789 C.ar    1  UNL1       -0.0029
     28 C         144.7449  141.6822  156.9042 C.ar    1  UNL1       -0.0024
     29 C         145.7771  142.5531  157.5570 C.ar    1  UNL1       -0.0029
     30 C         147.1612  142.6335  156.9846 C.ar    1  UNL1       -0.0045
@<TRIPOS>BOND
     1    24    25    1
     2    25    26   ar
     3    26    27   ar
     4    27    28   ar
     5    28    23    1
     6    23    17    1
     7    17    18    1
     8    18    19    1
     9    19    20    1
    10    20     1    1
    11     1     2    1
    12     2     3    1
    13     3     4    1
    14     4     9    1
    15     9    10   ar
    16    10    11   ar
    17    11    12   ar
    18    12    13    1
    19    12    14   ar
    20    14    15   ar
    21     4     5    1
    22     5     6    1
    23     5     7    1
    24     5     8    1
    25    20    21    1
    26    21    22    2
    27    28    29   ar
    28    29    30   ar
    29    30    25   ar
    30    21    17   am
    31     8     1    1
    32    15     9   ar
    33    13    16    1
@<TRIPOS>MOLECULE
*****
 30 33 0 0 0
SMALL
GASTEIGER

@<TRIPOS>ATOM
      1 N         141.9635  141.9971  163.1734 N.3     1  UNL1       -0.2619
      2 C         141.1129  142.8043  164.1087 C.3     1  UNL1        0.0732
      3 C         141.1935  142.5689  165.5879 C.3     1  UNL1        0.0272
      4 C         142.1247  141.5263  166.1318 C.3     1  UNL1        0.0864
      5 C         142.9754  140.7190  165.1965 C.3     1  UNL1        0.2819
      6 F         143.9745  139.7082  164.7171 F       1  UNL1       -0.2025
      7 F         143.4029  140.1327  166.5092 F       1  UNL1       -0.2025
      8 C         142.8947  140.9545  163.7173 C.3     1  UNL1        0.1401
      9 C         142.2053  141.2910  167.6111 C.ar    1  UNL1       -0.0169
     10 C         143.1548  142.0960  168.4480 C.ar    1  UNL1       -0.0010
     11 C         143.2354  141.8607  169.9272 C.ar    1  UNL1        0.0363
     12 C         142.3665  140.8202  170.5695 C.ar    1  UNL1        0.1337
     13 O         142.4471  140.5848  172.0487 O.3     1  UNL1       -0.5055
     14 C         141.4170  140.0152  169.7326 C.ar    1  UNL1        0.0363
     15 C         141.3364  140.2505  168.2534 C.ar    1  UNL1       -0.0010
     16 H         143.0402  141.0877  172.5715 H       1  UNL1        0.2922
     17 N         142.3303  143.0783  159.4637 N.am    1  UNL1       -0.2743
     18 C         141.1876  142.1109  159.3720 C.3     1  UNL1        0.0957
     19 C         140.9111  141.5881  160.7506 C.3     1  UNL1        0.0468
     20 C         141.8829  142.2324  161.6942 C.3     1  UNL1        0.1368
     21 C         142.7600  143.1534  160.8989 C.2     1  UNL1        0.2404
     22 O         143.8717  144.0007  161.4431 O.2     1  UNL1       -0.2734
     23 C         142.9367  143.8373  158.3209 C.3     1  UNL1        0.1202
     24 C         139.4780  147.2925  154.8425 C.3     1  UNL1        0.0310
     25 C         140.3427  146.4287  155.7121 C.ar    1  UNL1       -0.0219
     26 C         140.1214  146.3980  157.1953 C.ar    1  UNL1       -0.0045
     27 C         140.9861  145.5342  158.0649 C.ar    1  UNL1       -0.0029
     28 C         142.0721  144.7011  157.4513 C.ar    1  UNL1       -0.0024
     29 C         142.2933  144.7318  155.9680 C.ar    1  UNL1       -0.0029
     30 C         141.4286  145.5955  155.0984 C.ar    1  UNL1       -0.0045
@<TRIPOS>BOND
     1    24    25    1
     2    25    26   ar
     3    26    27   ar
     4    27    28   ar
     5    28    23    1
     6    23    17    1
     7    17    18    1
     8    18    19    1
     9    19    20    1
    10    20     1    1
    11     1     2    1
    12     2     3    1
    13     3     4    1
    14     4     9    1
    15     9    10   ar
    16    10    11   ar
    17    11    12   ar
    18    12    13    1
    19    12    14   ar
    20    14    15   ar
    21     4     5    1
    22     5     6    1
    23     5     7    1
    24     5     8    1
    25    20    21    1
    26    21    22    2
    27    28    29   ar
    28    29    30   ar
    29    30    25   ar
    30    21    17   am
    31     8     1    1
    32    15     9   ar
    33    13    16    1
