@<TRIPOS>MOLECULE
*****
 18 19 0 0 0
SMALL
GASTEIGER

@<TRIPOS>ATOM
      1 C         138.2762  139.8287  163.2180 C.ar    1  UNL1        0.1351
      2 C         138.0619  140.5444  161.9173 C.ar    1  UNL1        0.0375
      3 C         137.8375  142.0274  161.9053 C.ar    1  UNL1        0.0145
      4 C         137.8274  142.7948  163.1941 C.ar    1  UNL1        0.0576
      5 CL        137.6030  144.2779  163.1821 Cl      1  UNL1       -0.0823
      6 C         138.0417  142.0792  164.4948 C.ar    1  UNL1        0.0101
      7 C         138.2661  140.5961  164.5067 C.ar    1  UNL1        0.0124
      8 C         138.4803  139.8804  165.8075 C.3     1  UNL1        0.0267
      9 C         139.1966  139.7570  167.1197 C.3     1  UNL1        0.0062
     10 C         138.1352  138.7643  166.7483 C.3     1  UNL1        0.0200
     11 C         137.3231  137.5468  167.0771 C.3     1  UNL1        0.0654
     12 N         136.2772  137.6102  168.1504 N.3     1  UNL1       -0.3211
     13 H         136.7257  137.7652  169.0534 H       1  UNL1        0.1189
     14 H         135.7604  136.7312  168.1739 H       1  UNL1        0.1189
     15 O         138.5006  138.3456  163.2299 O.3     1  UNL1       -0.4710
     16 C         139.8907  137.7964  163.1047 C.3     1  UNL1        0.2318
     17 C         141.8235  137.9672  164.8325 C.2     1  UNL1       -0.0011
     18 C         140.6006  137.2686  164.3161 C.2     1  UNL1        0.0207
@<TRIPOS>BOND
     1    17    18    2
     2    18    16    1
     3    16    15    1
     4    15     1    1
     5     1     2   ar
     6     2     3   ar
     7     3     4   ar
     8     4     5    1
     9     4     6   ar
    10     6     7   ar
    11     8     7    1
    12     8     9    1
    13     9    10    1
    14    10    11    1
    15    11    12    1
    16     7     1   ar
    17    10     8    1
    18    12    13    1
    19    12    14    1
@<TRIPOS>MOLECULE
*****
 18 19 0 0 0
SMALL
GASTEIGER

@<TRIPOS>ATOM
      1 C         140.1309  141.0163  165.9053 C.ar    1  UNL1        0.1351
      2 C         139.5734  140.1139  164.8448 C.ar    1  UNL1        0.0375
      3 C         138.6413  139.0006  165.2213 C.ar    1  UNL1        0.0145
      4 C         138.2666  138.7898  166.6583 C.ar    1  UNL1        0.0576
      5 CL        137.3345  137.6765  167.0348 Cl      1  UNL1       -0.0823
      6 C         138.8241  139.6922  167.7188 C.ar    1  UNL1        0.0101
      7 C         139.7562  140.8055  167.3423 C.ar    1  UNL1        0.0124
      8 C         140.3137  141.7080  168.4030 C.3     1  UNL1        0.0267
      9 C         140.5938  143.0885  168.9183 C.3     1  UNL1        0.0062
     10 C         140.9990  141.8904  169.7247 C.3     1  UNL1        0.0200
     11 C         141.6287  141.3040  170.9534 C.3     1  UNL1        0.0654
     12 N         140.7743  140.6269  171.9836 N.3     1  UNL1       -0.3211
     13 H         140.1580  141.3133  172.4187 H       1  UNL1        0.1189
     14 H         141.3705  140.2054  172.6959 H       1  UNL1        0.1189
     15 O         141.0630  142.1296  165.5288 O.3     1  UNL1       -0.4710
     16 C         140.5246  143.3739  164.8872 C.3     1  UNL1        0.2318
     17 C         137.9874  143.8834  164.6572 C.2     1  UNL1       -0.0011
     18 C         139.2742  144.0105  165.4175 C.2     1  UNL1        0.0207
@<TRIPOS>BOND
     1    17    18    2
     2    18    16    1
     3    16    15    1
     4    15     1    1
     5     1     2   ar
     6     2     3   ar
     7     3     4   ar
     8     4     5    1
     9     4     6   ar
    10     6     7   ar
    11     8     7    1
    12     8     9    1
    13     9    10    1
    14    10    11    1
    15    11    12    1
    16     7     1   ar
    17    10     8    1
    18    12    13    1
    19    12    14    1
@<TRIPOS>MOLECULE
*****
 18 19 0 0 0
SMALL
GASTEIGER

@<TRIPOS>ATOM
      1 C         140.3665  141.7030  166.2598 C.ar    1  UNL1        0.1351
      2 C         140.8651  142.4994  167.4290 C.ar    1  UNL1        0.0375
      3 C         140.6169  142.0153  168.8269 C.ar    1  UNL1        0.0145
      4 C         139.8701  140.7347  169.0555 C.ar    1  UNL1        0.0576
      5 CL        139.6219  140.2505  170.4534 Cl      1  UNL1       -0.0823
      6 C         139.3715  139.9382  167.8863 C.ar    1  UNL1        0.0101
      7 C         139.6197  140.4224  166.4885 C.ar    1  UNL1        0.0124
      8 C         139.1211  139.6258  165.3193 C.3     1  UNL1        0.0267
      9 C         138.9144  138.3038  164.6414 C.3     1  UNL1        0.0062
     10 C         138.4643  139.5684  163.9720 C.3     1  UNL1        0.0200
     11 C         137.8251  140.2653  162.8076 C.3     1  UNL1        0.0654
     12 N         136.7756  141.3107  163.0433 N.3     1  UNL1       -0.3211
     13 H         135.9502  140.8767  163.4565 H       1  UNL1        0.1189
     14 H         136.5230  141.7450  162.1556 H       1  UNL1        0.1189
     15 O         140.6147  142.1871  164.8620 O.3     1  UNL1       -0.4710
     16 C         140.0352  143.4935  164.4067 C.3     1  UNL1        0.2318
     17 C         138.4190  145.0030  165.7704 C.2     1  UNL1       -0.0011
     18 C         138.6407  143.8753  164.8064 C.2     1  UNL1        0.0207
@<TRIPOS>BOND
     1    17    18    2
     2    18    16    1
     3    16    15    1
     4    15     1    1
     5     1     2   ar
     6     2     3   ar
     7     3     4   ar
     8     4     5    1
     9     4     6   ar
    10     6     7   ar
    11     8     7    1
    12     8     9    1
    13     9    10    1
    14    10    11    1
    15    11    12    1
    16     7     1   ar
    17    10     8    1
    18    12    13    1
    19    12    14    1
@<TRIPOS>MOLECULE
*****
 18 19 0 0 0
SMALL
GASTEIGER

@<TRIPOS>ATOM
      1 C         141.2055  142.4800  166.4254 C.ar    1  UNL1        0.1351
      2 C         142.6363  142.1670  166.7492 C.ar    1  UNL1        0.0375
      3 C         143.7312  142.6333  165.8362 C.ar    1  UNL1        0.0145
      4 C         143.3954  143.4126  164.5993 C.ar    1  UNL1        0.0576
      5 CL        144.4904  143.8789  163.6863 Cl      1  UNL1       -0.0823
      6 C         141.9647  143.7255  164.2755 C.ar    1  UNL1        0.0101
      7 C         140.8697  143.2592  165.1885 C.ar    1  UNL1        0.0124
      8 C         139.4389  143.5722  164.8646 C.3     1  UNL1        0.0267
      9 C         138.1876  144.3549  165.1323 C.3     1  UNL1        0.0062
     10 C         138.2120  143.3316  164.0359 C.3     1  UNL1        0.0200
     11 C         137.5177  142.6018  162.9244 C.3     1  UNL1        0.0654
     12 N         136.7725  141.3321  163.2114 N.3     1  UNL1       -0.3211
     13 H         137.4308  140.6103  163.5044 H       1  UNL1        0.1189
     14 H         136.2851  141.0262  162.3692 H       1  UNL1        0.1189
     15 O         140.1106  142.0136  167.3384 O.3     1  UNL1       -0.4710
     16 C         139.7494  140.5589  167.3945 C.3     1  UNL1        0.2318
     17 C         137.9896  138.8662  166.5067 C.2     1  UNL1       -0.0011
     18 C         139.0234  139.9216  166.2469 C.2     1  UNL1        0.0207
@<TRIPOS>BOND
     1    17    18    2
     2    18    16    1
     3    16    15    1
     4    15     1    1
     5     1     2   ar
     6     2     3   ar
     7     3     4   ar
     8     4     5    1
     9     4     6   ar
    10     6     7   ar
    11     8     7    1
    12     8     9    1
    13     9    10    1
    14    10    11    1
    15    11    12    1
    16     7     1   ar
    17    10     8    1
    18    12    13    1
    19    12    14    1
@<TRIPOS>MOLECULE
*****
 18 19 0 0 0
SMALL
GASTEIGER

@<TRIPOS>ATOM
      1 C         140.0603  141.6246  165.9594 C.ar    1  UNL1        0.1351
      2 C         139.1009  141.0597  164.9543 C.ar    1  UNL1        0.0375
      3 C         138.2522  139.8753  165.3107 C.ar    1  UNL1        0.0145
      4 C         138.3630  139.2559  166.6723 C.ar    1  UNL1        0.0576
      5 CL        137.5143  138.0715  167.0287 Cl      1  UNL1       -0.0823
      6 C         139.3224  139.8208  167.6774 C.ar    1  UNL1        0.0101
      7 C         140.1710  141.0052  167.3210 C.ar    1  UNL1        0.0124
      8 C         141.1305  141.5701  168.3262 C.3     1  UNL1        0.0267
      9 C         142.4376  142.2337  168.6443 C.3     1  UNL1        0.0062
     10 C         141.4850  141.8850  169.7493 C.3     1  UNL1        0.0200
     11 C         141.1398  141.8656  171.2089 C.3     1  UNL1        0.0654
     12 N         140.6832  140.5911  171.8546 N.3     1  UNL1       -0.3211
     13 H         139.7829  140.3148  171.4626 H       1  UNL1        0.1189
     14 H         140.5866  140.7348  172.8598 H       1  UNL1        0.1189
     15 O         140.9089  142.8090  165.6030 O.3     1  UNL1       -0.4710
     16 C         142.0195  142.6629  164.6054 C.3     1  UNL1        0.2318
     17 C         144.3773  143.4021  165.4084 C.2     1  UNL1       -0.0011
     18 C         143.4027  142.3135  165.0688 C.2     1  UNL1        0.0207
@<TRIPOS>BOND
     1    17    18    2
     2    18    16    1
     3    16    15    1
     4    15     1    1
     5     1     2   ar
     6     2     3   ar
     7     3     4   ar
     8     4     5    1
     9     4     6   ar
    10     6     7   ar
    11     8     7    1
    12     8     9    1
    13     9    10    1
    14    10    11    1
    15    11    12    1
    16     7     1   ar
    17    10     8    1
    18    12    13    1
    19    12    14    1
@<TRIPOS>MOLECULE
*****
 18 19 0 0 0
SMALL
GASTEIGER

@<TRIPOS>ATOM
      1 C         142.1898  141.4802  167.3745 C.ar    1  UNL1        0.1351
      2 C         143.2125  142.2884  166.6324 C.ar    1  UNL1        0.0375
      3 C         142.8889  142.8463  165.2781 C.ar    1  UNL1        0.0145
      4 C         141.5425  142.5960  164.6660 C.ar    1  UNL1        0.0576
      5 CL        141.2189  143.1540  163.3118 Cl      1  UNL1       -0.0823
      6 C         140.5198  141.7879  165.4082 C.ar    1  UNL1        0.0101
      7 C         140.8435  141.2299  166.7625 C.ar    1  UNL1        0.0124
      8 C         139.8207  140.4217  167.5046 C.3     1  UNL1        0.0267
      9 C         139.1674  140.0217  168.7943 C.3     1  UNL1        0.0062
     10 C         138.7025  139.4219  167.5004 C.3     1  UNL1        0.0200
     11 C         137.7885  138.4984  166.7509 C.3     1  UNL1        0.0654
     12 N         136.8587  137.5915  167.5012 N.3     1  UNL1       -0.3211
     13 H         137.4021  136.9056  168.0253 H       1  UNL1        0.1189
     14 H         136.2481  137.1094  166.8416 H       1  UNL1        0.1189
     15 O         142.5134  140.9222  168.7288 O.3     1  UNL1       -0.4710
     16 C         142.6152  141.8379  169.9124 C.3     1  UNL1        0.2318
     17 C         140.4073  143.2017  170.0352 C.2     1  UNL1       -0.0011
     18 C         141.9009  143.1569  169.9039 C.2     1  UNL1        0.0207
@<TRIPOS>BOND
     1    17    18    2
     2    18    16    1
     3    16    15    1
     4    15     1    1
     5     1     2   ar
     6     2     3   ar
     7     3     4   ar
     8     4     5    1
     9     4     6   ar
    10     6     7   ar
    11     8     7    1
    12     8     9    1
    13     9    10    1
    14    10    11    1
    15    11    12    1
    16     7     1   ar
    17    10     8    1
    18    12    13    1
    19    12    14    1
@<TRIPOS>MOLECULE
*****
 18 19 0 0 0
SMALL
GASTEIGER

@<TRIPOS>ATOM
      1 C         141.7350  142.4781  165.5287 C.ar    1  UNL1        0.1351
      2 C         142.8756  141.9939  166.3740 C.ar    1  UNL1        0.0375
      3 C         142.7521  141.9891  167.8689 C.ar    1  UNL1        0.0145
      4 C         141.4880  142.4685  168.5185 C.ar    1  UNL1        0.0576
      5 CL        141.3644  142.4637  170.0134 Cl      1  UNL1       -0.0823
      6 C         140.3473  142.9527  167.6732 C.ar    1  UNL1        0.0101
      7 C         140.4709  142.9575  166.1783 C.ar    1  UNL1        0.0124
      8 C         139.3302  143.4417  165.3331 C.3     1  UNL1        0.0267
      9 C         138.2962  144.4821  165.0190 C.3     1  UNL1        0.0062
     10 C         138.3885  143.2400  164.1831 C.3     1  UNL1        0.0200
     11 C         137.8981  142.4065  163.0365 C.3     1  UNL1        0.0654
     12 N         136.7936  141.4141  163.2492 N.3     1  UNL1       -0.3211
     13 H         137.1169  140.6740  163.8722 H       1  UNL1        0.1189
     14 H         136.5226  141.0097  162.3528 H       1  UNL1        0.1189
     15 O         141.8586  142.4829  164.0338 O.3     1  UNL1       -0.4710
     16 C         143.0120  143.1834  163.3788 C.3     1  UNL1        0.2318
     17 C         141.8338  145.4898  163.5851 C.2     1  UNL1       -0.0011
     18 C         143.0820  144.6817  163.3868 C.2     1  UNL1        0.0207
@<TRIPOS>BOND
     1    17    18    2
     2    18    16    1
     3    16    15    1
     4    15     1    1
     5     1     2   ar
     6     2     3   ar
     7     3     4   ar
     8     4     5    1
     9     4     6   ar
    10     6     7   ar
    11     8     7    1
    12     8     9    1
    13     9    10    1
    14    10    11    1
    15    11    12    1
    16     7     1   ar
    17    10     8    1
    18    12    13    1
    19    12    14    1
@<TRIPOS>MOLECULE
*****
 18 19 0 0 0
SMALL
GASTEIGER

@<TRIPOS>ATOM
      1 C         141.4409  141.0513  166.6517 C.ar    1  UNL1        0.1351
      2 C         142.5041  141.7292  167.4641 C.ar    1  UNL1        0.0375
      3 C         142.2799  141.9905  168.9241 C.ar    1  UNL1        0.0145
      4 C         140.9926  141.5740  169.5716 C.ar    1  UNL1        0.0576
      5 CL        140.7685  141.8353  171.0316 Cl      1  UNL1       -0.0823
      6 C         139.9295  140.8961  168.7592 C.ar    1  UNL1        0.0101
      7 C         140.1536  140.6348  167.2992 C.ar    1  UNL1        0.0124
      8 C         139.0903  139.9569  166.4867 C.3     1  UNL1        0.0267
      9 C         138.0036  138.9299  166.3674 C.3     1  UNL1        0.0062
     10 C         138.3355  139.8099  165.1989 C.3     1  UNL1        0.0200
     11 C         138.0913  140.2330  163.7807 C.3     1  UNL1        0.0654
     12 N         136.9550  141.1577  163.4590 N.3     1  UNL1       -0.3211
     13 H         136.0700  140.6887  163.6519 H       1  UNL1        0.1189
     14 H         136.9952  141.4156  162.4729 H       1  UNL1        0.1189
     15 O         141.6650  140.7900  165.1917 O.3     1  UNL1       -0.4710
     16 C         142.5334  139.6460  164.7593 C.3     1  UNL1        0.2318
     17 C         141.2025  137.4204  164.5994 C.2     1  UNL1       -0.0011
     18 C         142.2540  138.2606  165.2617 C.2     1  UNL1        0.0207
@<TRIPOS>BOND
     1    17    18    2
     2    18    16    1
     3    16    15    1
     4    15     1    1
     5     1     2   ar
     6     2     3   ar
     7     3     4   ar
     8     4     5    1
     9     4     6   ar
    10     6     7   ar
    11     8     7    1
    12     8     9    1
    13     9    10    1
    14    10    11    1
    15    11    12    1
    16     7     1   ar
    17    10     8    1
    18    12    13    1
    19    12    14    1
@<TRIPOS>MOLECULE
*****
 18 19 0 0 0
SMALL
GASTEIGER

@<TRIPOS>ATOM
      1 C         139.9488  141.6023  166.7500 C.ar    1  UNL1        0.1351
      2 C         140.6761  142.7251  167.4286 C.ar    1  UNL1        0.0375
      3 C         140.9698  142.6489  168.8976 C.ar    1  UNL1        0.0145
      4 C         140.5364  141.4501  169.6880 C.ar    1  UNL1        0.0576
      5 CL        140.8301  141.3740  171.1570 Cl      1  UNL1       -0.0823
      6 C         139.8091  140.3273  169.0094 C.ar    1  UNL1        0.0101
      7 C         139.5153  140.4035  167.5404 C.ar    1  UNL1        0.0124
      8 C         138.7880  139.2806  166.8618 C.3     1  UNL1        0.0267
      9 C         137.6620  138.2900  166.8362 C.3     1  UNL1        0.0062
     10 C         138.6545  138.3265  165.7122 C.3     1  UNL1        0.0200
     11 C         139.1504  137.7967  164.3994 C.3     1  UNL1        0.0654
     12 N         140.5768  137.3540  164.2600 N.3     1  UNL1       -0.3211
     13 H         141.1943  138.1592  164.3633 H       1  UNL1        0.1189
     14 H         140.7146  136.9357  163.3399 H       1  UNL1        0.1189
     15 O         139.6550  141.6785  165.2810 O.3     1  UNL1       -0.4710
     16 C         138.3351  142.2101  164.8067 C.3     1  UNL1        0.2318
     17 C         138.5942  144.7573  165.2480 C.2     1  UNL1       -0.0011
     18 C         138.2248  143.6286  164.3316 C.2     1  UNL1        0.0207
@<TRIPOS>BOND
     1    17    18    2
     2    18    16    1
     3    16    15    1
     4    15     1    1
     5     1     2   ar
     6     2     3   ar
     7     3     4   ar
     8     4     5    1
     9     4     6   ar
    10     6     7   ar
    11     8     7    1
    12     8     9    1
    13     9    10    1
    14    10    11    1
    15    11    12    1
    16     7     1   ar
    17    10     8    1
    18    12    13    1
    19    12    14    1
