@<TRIPOS>MOLECULE
*****
 29 32 0 0 0
SMALL
GASTEIGER

@<TRIPOS>ATOM
      1 C         139.4978  139.9897  165.6305 C.2     1  UNL1       -0.0021
      2 C         138.8626  138.7567  165.0594 C.2     1  UNL1        0.0942
      3 N         138.1110  139.1527  163.8231 N.2     1  UNL1       -0.2482
      4 C         138.2817  140.6305  163.6302 C.2     1  UNL1        0.0633
      5 C         137.7674  141.5718  162.5818 C.3     1  UNL1        0.0753
      6 C         138.1103  143.0305  162.6504 C.2     1  UNL1        0.0203
      7 C         138.9674  143.5477  163.7674 C.2     1  UNL1        0.1317
      8 C         139.4817  142.6064  164.8159 C.2     1  UNL1        0.0407
      9 C         139.1388  141.1477  164.7473 C.2     1  UNL1        0.0148
     10 C         140.6360  140.7218  169.3613 C.3     1  UNL1        0.0543
     11 C         142.0350  140.1811  169.3422 C.3     1  UNL1        0.0157
     12 C         142.5883  139.5766  168.0858 C.3     1  UNL1        0.0017
     13 C         141.7425  139.5128  166.8486 C.3     1  UNL1        0.0045
     14 C         140.3435  140.0535  166.8677 C.3     1  UNL1        0.0252
     15 C         139.7902  140.6580  168.1241 C.3     1  UNL1        0.0201
     16 N         140.0826  141.3263  170.6176 N.3     1  UNL1       -0.2985
     17 H         139.2191  140.8264  170.8294 H       1  UNL1        0.1232
     18 C         140.5511  143.7612  169.8418 C.3     1  UNL1        0.0185
     19 C         139.7587  142.7901  170.6660 C.3     1  UNL1        0.0686
     20 N         139.3103  145.0065  163.8360 N.pl3   1  UNL1       -0.1992
     21 H         138.8645  145.5865  164.4948 H       1  UNL1        0.2985
     22 C         140.3323  145.5815  162.9007 C.2     1  UNL1        0.3224
     23 N         139.9774  146.7483  162.0274 N.2     1  UNL1       -0.0985
     24 H         139.0737  147.1367  162.0681 H       1  UNL1        0.3633
     25 C         141.7093  144.9896  162.8387 C.ar    1  UNL1        0.1114
     26 C         142.7953  145.1753  163.8566 C.ar    1  UNL1        0.0144
     27 C         143.9992  144.4087  163.3949 C.ar    1  UNL1        0.0077
     28 C         143.6571  143.7493  162.0917 C.ar    1  UNL1        0.0357
     29 S         142.2419  144.1084  161.7480 S.2     1  UNL1       -0.0792
@<TRIPOS>BOND
     1    18    19    1
     2    19    16    1
     3    10    16    1
     4    10    11    1
     5    11    12    1
     6    12    13    1
     7    13    14    1
     8    14     1    1
     9     1     2    2
    10     2     3    1
    11     3     4    2
    12     4     5    1
    13     5     6    1
    14     6     7    2
    15     7    20    1
    16    20    22    1
    17    22    23    2
    18    22    25    1
    19    25    26   ar
    20    26    27   ar
    21    27    28   ar
    22    28    29   ar
    23     7     8    1
    24     8     9    2
    25    14    15    1
    26    15    10    1
    27     9     1    1
    28     9     4    1
    29    29    25   ar
    30    16    17    1
    31    20    21    1
    32    23    24    1
@<TRIPOS>MOLECULE
*****
 29 32 0 0 0
SMALL
GASTEIGER

@<TRIPOS>ATOM
      1 C         142.9608  139.8825  165.8478 C.2     1  UNL1       -0.0021
      2 C         143.9163  138.7350  165.7053 C.2     1  UNL1        0.0942
      3 N         144.9670  139.1277  164.7094 N.2     1  UNL1       -0.2482
      4 C         144.6609  140.5179  164.2364 C.2     1  UNL1        0.0633
      5 C         145.3510  141.4192  163.2560 C.3     1  UNL1        0.0753
      6 C         144.8012  142.7871  162.9791 C.2     1  UNL1        0.0203
      7 C         143.5613  143.2536  163.6827 C.2     1  UNL1        0.1317
      8 C         142.8712  142.3522  164.6631 C.2     1  UNL1        0.0407
      9 C         143.4210  140.9844  164.9400 C.2     1  UNL1        0.0148
     10 C         140.6943  140.3828  169.0670 C.3     1  UNL1        0.0543
     11 C         139.3481  139.9991  168.5282 C.3     1  UNL1        0.0157
     12 C         139.2060  139.5765  167.0960 C.3     1  UNL1        0.0017
     13 C         140.4103  139.5377  166.2026 C.3     1  UNL1        0.0045
     14 C         141.7566  139.9214  166.7412 C.3     1  UNL1        0.0252
     15 C         141.8986  140.3440  168.1735 C.3     1  UNL1        0.0201
     16 N         140.8364  140.8054  170.4992 N.3     1  UNL1       -0.2985
     17 H         140.2201  140.2042  171.0461 H       1  UNL1        0.1232
     18 C         140.4808  143.2979  169.8578 C.3     1  UNL1        0.0185
     19 C         140.5290  142.2183  170.8982 C.3     1  UNL1        0.0686
     20 N         143.0115  144.6215  163.4058 N.pl3   1  UNL1       -0.1992
     21 H         143.4310  145.4127  163.8148 H       1  UNL1        0.2985
     22 C         141.8227  144.7839  162.5057 C.2     1  UNL1        0.3224
     23 N         142.0202  145.0673  161.0460 N.2     1  UNL1       -0.0985
     24 H         142.9301  145.1467  160.6787 H       1  UNL1        0.3633
     25 C         140.4362  144.6630  163.0654 C.ar    1  UNL1        0.1114
     26 C         140.0643  144.7125  164.5177 C.ar    1  UNL1        0.0144
     27 C         138.5764  144.5514  164.6209 C.ar    1  UNL1        0.0077
     28 C         138.0290  144.4023  163.2323 C.ar    1  UNL1        0.0357
     29 S         139.1783  144.4712  162.2710 S.2     1  UNL1       -0.0792
@<TRIPOS>BOND
     1    18    19    1
     2    19    16    1
     3    10    16    1
     4    10    11    1
     5    11    12    1
     6    12    13    1
     7    13    14    1
     8    14     1    1
     9     1     2    2
    10     2     3    1
    11     3     4    2
    12     4     5    1
    13     5     6    1
    14     6     7    2
    15     7    20    1
    16    20    22    1
    17    22    23    2
    18    22    25    1
    19    25    26   ar
    20    26    27   ar
    21    27    28   ar
    22    28    29   ar
    23     7     8    1
    24     8     9    2
    25    14    15    1
    26    15    10    1
    27     9     1    1
    28     9     4    1
    29    29    25   ar
    30    16    17    1
    31    20    21    1
    32    23    24    1
@<TRIPOS>MOLECULE
*****
 29 32 0 0 0
SMALL
GASTEIGER

@<TRIPOS>ATOM
      1 C         140.4345  142.0847  166.2453 C.2     1  UNL1       -0.0021
      2 C         140.5439  142.4211  167.7030 C.2     1  UNL1        0.0942
      3 N         141.4420  141.4067  168.3466 N.2     1  UNL1       -0.2482
      4 C         141.8877  140.4433  167.2868 C.2     1  UNL1        0.0633
      5 C         142.7801  139.2387  167.3365 C.3     1  UNL1        0.0753
      6 C         143.0498  138.4532  166.0874 C.2     1  UNL1        0.0203
      7 C         142.4272  138.8722  164.7887 C.2     1  UNL1        0.1317
      8 C         141.5348  140.0768  164.7390 C.2     1  UNL1        0.0407
      9 C         141.2651  140.8624  165.9880 C.2     1  UNL1        0.0148
     10 C         139.4089  144.8188  163.5577 C.3     1  UNL1        0.0543
     11 C         138.0360  144.3456  163.1817 C.3     1  UNL1        0.0157
     12 C         137.4627  143.1189  163.8269 C.3     1  UNL1        0.0017
     13 C         138.2622  142.3653  164.8481 C.3     1  UNL1        0.0045
     14 C         139.6350  142.8383  165.2241 C.3     1  UNL1        0.0252
     15 C         140.2084  144.0651  164.5789 C.3     1  UNL1        0.0201
     16 N         139.9823  146.0455  162.9125 N.3     1  UNL1       -0.2985
     17 H         139.5480  146.8481  163.3681 H       1  UNL1        0.1232
     18 C         140.5786  145.3736  160.4746 C.3     1  UNL1        0.0185
     19 C         139.8346  146.2542  161.4344 C.3     1  UNL1        0.0686
     20 N         142.6969  138.0866  163.5396 N.pl3   1  UNL1       -0.1992
     21 H         142.1614  137.2859  163.3364 H       1  UNL1        0.2985
     22 C         143.7826  138.5210  162.6002 C.2     1  UNL1        0.3224
     23 N         144.2281  137.6089  161.4958 N.2     1  UNL1       -0.0985
     24 H         143.8079  136.7252  161.3876 H       1  UNL1        0.3633
     25 C         144.4229  139.8674  162.7652 C.ar    1  UNL1        0.1114
     26 C         145.3031  140.2916  163.9033 C.ar    1  UNL1        0.0144
     27 C         145.7196  141.7124  163.6626 C.ar    1  UNL1        0.0077
     28 C         145.0967  142.1663  162.3756 C.ar    1  UNL1        0.0357
     29 S         144.2954  141.0260  161.8210 S.2     1  UNL1       -0.0792
@<TRIPOS>BOND
     1    18    19    1
     2    19    16    1
     3    10    16    1
     4    10    11    1
     5    11    12    1
     6    12    13    1
     7    13    14    1
     8    14     1    1
     9     1     2    2
    10     2     3    1
    11     3     4    2
    12     4     5    1
    13     5     6    1
    14     6     7    2
    15     7    20    1
    16    20    22    1
    17    22    23    2
    18    22    25    1
    19    25    26   ar
    20    26    27   ar
    21    27    28   ar
    22    28    29   ar
    23     7     8    1
    24     8     9    2
    25    14    15    1
    26    15    10    1
    27     9     1    1
    28     9     4    1
    29    29    25   ar
    30    16    17    1
    31    20    21    1
    32    23    24    1
@<TRIPOS>MOLECULE
*****
 29 32 0 0 0
SMALL
GASTEIGER

@<TRIPOS>ATOM
      1 C         140.3941  141.6484  166.5738 C.2     1  UNL1       -0.0021
      2 C         140.5433  141.8980  168.0454 C.2     1  UNL1        0.0942
      3 N         141.5712  140.9429  168.5756 N.2     1  UNL1       -0.2482
      4 C         142.0573  140.1031  167.4318 C.2     1  UNL1        0.0633
      5 C         143.0684  138.9976  167.3569 C.3     1  UNL1        0.0753
      6 C         143.3520  138.3282  166.0449 C.2     1  UNL1        0.0203
      7 C         142.6244  138.7642  164.8077 C.2     1  UNL1        0.1317
      8 C         141.6134  139.8696  164.8826 C.2     1  UNL1        0.0407
      9 C         141.3298  140.5391  166.1946 C.2     1  UNL1        0.0148
     10 C         137.6955  142.3445  163.7483 C.3     1  UNL1        0.0543
     11 C         137.6254  143.8423  163.7861 C.3     1  UNL1        0.0157
     12 C         138.4781  144.6089  164.7532 C.3     1  UNL1        0.0017
     13 C         139.4010  143.8776  165.6824 C.3     1  UNL1        0.0045
     14 C         139.4712  142.3797  165.6446 C.3     1  UNL1        0.0252
     15 C         138.6184  141.6131  164.6775 C.3     1  UNL1        0.0201
     16 N         136.8428  141.5778  162.7813 N.3     1  UNL1       -0.2985
     17 H         136.1763  141.0419  163.3372 H       1  UNL1        0.1232
     18 C         138.2624  141.1327  160.6514 C.3     1  UNL1        0.0185
     19 C         137.4774  140.6164  161.8207 C.3     1  UNL1        0.0686
     20 N         142.9081  138.0947  163.4957 N.pl3   1  UNL1       -0.1992
     21 H         142.4256  137.2731  163.2478 H       1  UNL1        0.2985
     22 C         143.9268  138.6770  162.5613 C.2     1  UNL1        0.3224
     23 N         144.3870  137.8912  161.3693 N.2     1  UNL1       -0.0985
     24 H         144.0204  136.9933  161.2003 H       1  UNL1        0.3633
     25 C         144.4853  140.0451  162.8188 C.ar    1  UNL1        0.1114
     26 C         145.4252  140.4195  163.9263 C.ar    1  UNL1        0.0144
     27 C         145.7228  141.8849  163.8061 C.ar    1  UNL1        0.0077
     28 C         144.9669  142.4160  162.6243 C.ar    1  UNL1        0.0357
     29 S         144.2021  141.2789  162.0142 S.2     1  UNL1       -0.0792
@<TRIPOS>BOND
     1    18    19    1
     2    19    16    1
     3    10    16    1
     4    10    11    1
     5    11    12    1
     6    12    13    1
     7    13    14    1
     8    14     1    1
     9     1     2    2
    10     2     3    1
    11     3     4    2
    12     4     5    1
    13     5     6    1
    14     6     7    2
    15     7    20    1
    16    20    22    1
    17    22    23    2
    18    22    25    1
    19    25    26   ar
    20    26    27   ar
    21    27    28   ar
    22    28    29   ar
    23     7     8    1
    24     8     9    2
    25    14    15    1
    26    15    10    1
    27     9     1    1
    28     9     4    1
    29    29    25   ar
    30    16    17    1
    31    20    21    1
    32    23    24    1
@<TRIPOS>MOLECULE
*****
 29 32 0 0 0
SMALL
GASTEIGER

@<TRIPOS>ATOM
      1 C         141.4770  139.0234  165.0853 C.2     1  UNL1       -0.0021
      2 C         142.0240  137.6367  164.9187 C.2     1  UNL1        0.0942
      3 N         141.1507  136.9084  163.9405 N.2     1  UNL1       -0.2482
      4 C         140.0639  137.8450  163.5026 C.2     1  UNL1        0.0633
      5 C         138.9168  137.6765  162.5510 C.3     1  UNL1        0.0753
      6 C         137.9713  138.8151  162.3069 C.2     1  UNL1        0.0203
      7 C         138.1730  140.1223  163.0145 C.2     1  UNL1        0.1317
      8 C         139.3202  140.2908  163.9661 C.2     1  UNL1        0.0407
      9 C         140.2656  139.1522  164.2101 C.2     1  UNL1        0.0148
     10 C         143.3921  142.2945  166.2614 C.3     1  UNL1        0.0543
     11 C         143.1725  142.2339  167.7440 C.3     1  UNL1        0.0157
     12 C         142.3879  141.1031  168.3404 C.3     1  UNL1        0.0017
     13 C         141.8227  140.0330  167.4541 C.3     1  UNL1        0.0045
     14 C         142.0422  140.0936  165.9716 C.3     1  UNL1        0.0252
     15 C         142.8269  141.2244  165.3752 C.3     1  UNL1        0.0201
     16 N         144.1767  143.4252  165.6650 N.3     1  UNL1       -0.2985
     17 H         143.9097  144.2688  166.1724 H       1  UNL1        0.1232
     18 C         143.6178  145.1086  163.7665 C.3     1  UNL1        0.0185
     19 C         144.0469  143.7394  164.2040 C.3     1  UNL1        0.0686
     20 N         137.2275  141.2609  162.7704 N.pl3   1  UNL1       -0.1992
     21 H         136.2578  141.1266  162.8749 H       1  UNL1        0.2985
     22 C         137.7594  142.6042  162.3672 C.2     1  UNL1        0.3224
     23 N         137.6656  143.0498  160.9379 N.2     1  UNL1       -0.0985
     24 H         137.2550  142.4606  160.2646 H       1  UNL1        0.3633
     25 C         138.3851  143.5020  163.3932 C.ar    1  UNL1        0.1114
     26 C         137.7156  144.0324  164.6263 C.ar    1  UNL1        0.0144
     27 C         138.7069  144.8852  165.3614 C.ar    1  UNL1        0.0077
     28 C         139.9889  144.8818  164.5825 C.ar    1  UNL1        0.0357
     29 S         139.7900  144.0269  163.3661 S.2     1  UNL1       -0.0792
@<TRIPOS>BOND
     1    18    19    1
     2    19    16    1
     3    10    16    1
     4    10    11    1
     5    11    12    1
     6    12    13    1
     7    13    14    1
     8    14     1    1
     9     1     2    2
    10     2     3    1
    11     3     4    2
    12     4     5    1
    13     5     6    1
    14     6     7    2
    15     7    20    1
    16    20    22    1
    17    22    23    2
    18    22    25    1
    19    25    26   ar
    20    26    27   ar
    21    27    28   ar
    22    28    29   ar
    23     7     8    1
    24     8     9    2
    25    14    15    1
    26    15    10    1
    27     9     1    1
    28     9     4    1
    29    29    25   ar
    30    16    17    1
    31    20    21    1
    32    23    24    1
@<TRIPOS>MOLECULE
*****
 29 32 0 0 0
SMALL
GASTEIGER

@<TRIPOS>ATOM
      1 C         138.8381  139.4885  166.5623 C.2     1  UNL1       -0.0021
      2 C         137.9527  139.0332  167.6841 C.2     1  UNL1        0.0942
      3 N         138.5358  139.5401  168.9698 N.2     1  UNL1       -0.2482
      4 C         139.7816  140.3088  168.6425 C.2     1  UNL1        0.0633
      5 C         140.7700  141.0337  169.5072 C.3     1  UNL1        0.0753
      6 C         141.9452  141.7266  168.8838 C.2     1  UNL1        0.0203
      7 C         142.1321  141.6947  167.3959 C.2     1  UNL1        0.1317
      8 C         141.1437  140.9699  166.5312 C.2     1  UNL1        0.0407
      9 C         139.9685  140.2769  167.1546 C.2     1  UNL1        0.0148
     10 C         137.8544  139.9825  162.7493 C.3     1  UNL1        0.0543
     11 C         138.2132  138.6387  162.1876 C.3     1  UNL1        0.0157
     12 C         138.7804  137.5783  163.0841 C.3     1  UNL1        0.0017
     13 C         138.9886  137.8615  164.5423 C.3     1  UNL1        0.0045
     14 C         138.6298  139.2052  165.1041 C.3     1  UNL1        0.0252
     15 C         138.0627  140.2658  164.2075 C.3     1  UNL1        0.0201
     16 N         137.2873  141.0430  161.8529 N.3     1  UNL1       -0.2985
     17 H         137.1769  140.6211  160.9308 H       1  UNL1        0.1232
     18 C         137.8547  143.4561  162.6311 C.3     1  UNL1        0.0185
     19 C         138.0287  142.3317  161.6535 C.3     1  UNL1        0.0686
     20 N         143.3074  142.3877  166.7726 N.pl3   1  UNL1       -0.1992
     21 H         143.9130  142.9276  167.3302 H       1  UNL1        0.2985
     22 C         143.5599  142.2581  165.2997 C.2     1  UNL1        0.3224
     23 N         144.3943  141.1258  164.7785 N.2     1  UNL1       -0.0985
     24 H         144.7762  140.4677  165.4032 H       1  UNL1        0.3633
     25 C         142.9779  143.2609  164.3479 C.ar    1  UNL1        0.1114
     26 C         141.6497  143.9434  164.4896 C.ar    1  UNL1        0.0144
     27 C         141.4729  144.8615  163.3165 C.ar    1  UNL1        0.0077
     28 C         142.6919  144.7464  162.4500 C.ar    1  UNL1        0.0357
     29 S         143.6220  143.7572  163.0874 S.2     1  UNL1       -0.0792
@<TRIPOS>BOND
     1    18    19    1
     2    19    16    1
     3    10    16    1
     4    10    11    1
     5    11    12    1
     6    12    13    1
     7    13    14    1
     8    14     1    1
     9     1     2    2
    10     2     3    1
    11     3     4    2
    12     4     5    1
    13     5     6    1
    14     6     7    2
    15     7    20    1
    16    20    22    1
    17    22    23    2
    18    22    25    1
    19    25    26   ar
    20    26    27   ar
    21    27    28   ar
    22    28    29   ar
    23     7     8    1
    24     8     9    2
    25    14    15    1
    26    15    10    1
    27     9     1    1
    28     9     4    1
    29    29    25   ar
    30    16    17    1
    31    20    21    1
    32    23    24    1
@<TRIPOS>MOLECULE
*****
 29 32 0 0 0
SMALL
GASTEIGER

@<TRIPOS>ATOM
      1 C         142.0294  143.8466  163.8445 C.2     1  UNL1       -0.0021
      2 C         142.9224  145.0518  163.8571 C.2     1  UNL1        0.0942
      3 N         144.3421  144.5757  163.9447 N.2     1  UNL1       -0.2482
      4 C         144.3266  143.0763  163.9863 C.2     1  UNL1        0.0633
      5 C         145.4293  142.0632  164.0726 C.3     1  UNL1        0.0753
      6 C         145.1026  140.5994  164.0970 C.2     1  UNL1        0.0203
      7 C         143.6732  140.1488  164.0350 C.2     1  UNL1        0.1317
      8 C         142.5705  141.1620  163.9487 C.2     1  UNL1        0.0407
      9 C         142.8972  142.6257  163.9244 C.2     1  UNL1        0.0148
     10 C         138.3449  143.4422  162.4262 C.3     1  UNL1        0.0543
     11 C         137.5357  143.8867  163.6084 C.3     1  UNL1        0.0157
     12 C         138.2244  144.3179  164.8692 C.3     1  UNL1        0.0017
     13 C         139.7223  144.3045  164.9479 C.3     1  UNL1        0.0045
     14 C         140.5315  143.8600  163.7658 C.3     1  UNL1        0.0252
     15 C         139.8428  143.4288  162.5049 C.3     1  UNL1        0.0201
     16 N         137.6563  143.0110  161.1653 N.3     1  UNL1       -0.2985
     17 H         136.9321  142.3465  161.4378 H       1  UNL1        0.1232
     18 C         138.4792  140.8708  159.9434 C.3     1  UNL1        0.0185
     19 C         138.4439  142.3657  160.0638 C.3     1  UNL1        0.0686
     20 N         143.3466  138.6850  164.0594 N.pl3   1  UNL1       -0.1992
     21 H         143.6914  138.1157  164.7847 H       1  UNL1        0.2985
     22 C         142.4945  138.0886  162.9785 C.2     1  UNL1        0.3224
     23 N         143.1245  137.6151  161.7022 N.2     1  UNL1       -0.0985
     24 H         144.0973  137.6957  161.5740 H       1  UNL1        0.3633
     25 C         141.0123  137.9657  163.1739 C.ar    1  UNL1        0.1114
     26 C         140.3088  137.7739  164.4848 C.ar    1  UNL1        0.0144
     27 C         138.8351  137.7027  164.2138 C.ar    1  UNL1        0.0077
     28 C         138.6280  137.8504  162.7355 C.ar    1  UNL1        0.0357
     29 S         139.9736  138.0130  162.0928 S.2     1  UNL1       -0.0792
@<TRIPOS>BOND
     1    18    19    1
     2    19    16    1
     3    10    16    1
     4    10    11    1
     5    11    12    1
     6    12    13    1
     7    13    14    1
     8    14     1    1
     9     1     2    2
    10     2     3    1
    11     3     4    2
    12     4     5    1
    13     5     6    1
    14     6     7    2
    15     7    20    1
    16    20    22    1
    17    22    23    2
    18    22    25    1
    19    25    26   ar
    20    26    27   ar
    21    27    28   ar
    22    28    29   ar
    23     7     8    1
    24     8     9    2
    25    14    15    1
    26    15    10    1
    27     9     1    1
    28     9     4    1
    29    29    25   ar
    30    16    17    1
    31    20    21    1
    32    23    24    1
@<TRIPOS>MOLECULE
*****
 29 32 0 0 0
SMALL
GASTEIGER

@<TRIPOS>ATOM
      1 C         143.3239  140.2088  165.4844 C.2     1  UNL1       -0.0021
      2 C         144.3407  139.1363  165.2278 C.2     1  UNL1        0.0942
      3 N         145.2457  139.6089  164.1289 N.2     1  UNL1       -0.2482
      4 C         144.7882  140.9735  163.7063 C.2     1  UNL1        0.0633
      5 C         145.2997  141.9264  162.6669 C.3     1  UNL1        0.0753
      6 C         144.6235  143.2500  162.4653 C.2     1  UNL1        0.0203
      7 C         143.4357  143.6208  163.3030 C.2     1  UNL1        0.1317
      8 C         142.9243  142.6679  164.3424 C.2     1  UNL1        0.0407
      9 C         143.6005  141.3443  164.5440 C.2     1  UNL1        0.0148
     10 C         139.7102  139.8506  167.0852 C.3     1  UNL1        0.0543
     11 C         140.0232  140.0482  168.5388 C.3     1  UNL1        0.0157
     12 C         141.4364  140.2993  168.9743 C.3     1  UNL1        0.0017
     13 C         142.5367  140.3529  167.9561 C.3     1  UNL1        0.0045
     14 C         142.2237  140.1553  166.5025 C.3     1  UNL1        0.0252
     15 C         140.8104  139.9041  166.0671 C.3     1  UNL1        0.0201
     16 N         138.2969  139.5994  166.6497 N.3     1  UNL1       -0.2985
     17 H         137.6947  140.1112  167.2946 H       1  UNL1        0.1232
     18 C         136.9039  137.6697  167.6917 C.3     1  UNL1        0.0185
     19 C         137.7699  138.1965  166.5860 C.3     1  UNL1        0.0686
     20 N         142.7595  144.9445  163.1014 N.pl3   1  UNL1       -0.1992
     21 H         143.1561  145.7625  163.4792 H       1  UNL1        0.2985
     22 C         141.4790  145.0218  162.3240 C.2     1  UNL1        0.3224
     23 N         141.5062  145.3811  160.8679 N.2     1  UNL1       -0.0985
     24 H         142.3644  145.5661  160.4224 H       1  UNL1        0.3633
     25 C         140.1714  144.7398  163.0027 C.ar    1  UNL1        0.1114
     26 C         139.9237  144.7591  164.4820 C.ar    1  UNL1        0.0144
     27 C         138.4810  144.4203  164.7148 C.ar    1  UNL1        0.0077
     28 C         137.8373  144.1916  163.3794 C.ar    1  UNL1        0.0357
     29 S         138.8819  144.3891  162.3213 S.2     1  UNL1       -0.0792
@<TRIPOS>BOND
     1    18    19    1
     2    19    16    1
     3    10    16    1
     4    10    11    1
     5    11    12    1
     6    12    13    1
     7    13    14    1
     8    14     1    1
     9     1     2    2
    10     2     3    1
    11     3     4    2
    12     4     5    1
    13     5     6    1
    14     6     7    2
    15     7    20    1
    16    20    22    1
    17    22    23    2
    18    22    25    1
    19    25    26   ar
    20    26    27   ar
    21    27    28   ar
    22    28    29   ar
    23     7     8    1
    24     8     9    2
    25    14    15    1
    26    15    10    1
    27     9     1    1
    28     9     4    1
    29    29    25   ar
    30    16    17    1
    31    20    21    1
    32    23    24    1
@<TRIPOS>MOLECULE
*****
 29 32 0 0 0
SMALL
GASTEIGER

@<TRIPOS>ATOM
      1 C         143.1447  142.4689  165.3218 C.2     1  UNL1       -0.0021
      2 C         144.2027  143.5177  165.1470 C.2     1  UNL1        0.0942
      3 N         143.9864  144.1771  163.8172 N.2     1  UNL1       -0.2482
      4 C         142.7947  143.5358  163.1701 C.2     1  UNL1        0.0633
      5 C         142.1161  143.7768  161.8544 C.3     1  UNL1        0.0753
      6 C         140.9172  142.9620  161.4685 C.2     1  UNL1        0.0203
      7 C         140.3971  141.9063  162.3985 C.2     1  UNL1        0.1317
      8 C         141.0757  141.6653  163.7142 C.2     1  UNL1        0.0407
      9 C         142.2745  142.4800  164.1001 C.2     1  UNL1        0.0148
     10 C         142.7460  141.2493  169.0774 C.3     1  UNL1        0.0543
     11 C         142.6654  139.7638  168.8860 C.3     1  UNL1        0.0157
     12 C         142.7445  139.1800  167.5065 C.3     1  UNL1        0.0017
     13 C         142.9043  140.0817  166.3185 C.3     1  UNL1        0.0045
     14 C         142.9849  141.5672  166.5098 C.3     1  UNL1        0.0252
     15 C         142.9058  142.1510  167.8894 C.3     1  UNL1        0.0201
     16 N         142.6669  141.8332  170.4568 N.3     1  UNL1       -0.2985
     17 H         143.2980  141.2880  171.0440 H       1  UNL1        0.1232
     18 C         140.1795  142.5796  170.5366 C.3     1  UNL1        0.0185
     19 C         141.3499  141.8899  171.1727 C.3     1  UNL1        0.0686
     20 N         139.1982  141.0915  162.0126 N.pl3   1  UNL1       -0.1992
     21 H         139.0952  140.7756  161.0858 H       1  UNL1        0.2985
     22 C         138.1561  140.7580  163.0387 C.2     1  UNL1        0.3224
     23 N         136.8503  141.4959  163.0488 N.2     1  UNL1       -0.0985
     24 H         136.6771  142.1992  162.3820 H       1  UNL1        0.3633
     25 C         138.4200  139.6864  164.0547 C.ar    1  UNL1        0.1114
     26 C         138.8881  138.2914  163.7634 C.ar    1  UNL1        0.0144
     27 C         139.0195  137.5645  165.0691 C.ar    1  UNL1        0.0077
     28 C         138.6325  138.5104  166.1671 C.ar    1  UNL1        0.0357
     29 S         138.2620  139.8217  165.5402 S.2     1  UNL1       -0.0792
@<TRIPOS>BOND
     1    18    19    1
     2    19    16    1
     3    10    16    1
     4    10    11    1
     5    11    12    1
     6    12    13    1
     7    13    14    1
     8    14     1    1
     9     1     2    2
    10     2     3    1
    11     3     4    2
    12     4     5    1
    13     5     6    1
    14     6     7    2
    15     7    20    1
    16    20    22    1
    17    22    23    2
    18    22    25    1
    19    25    26   ar
    20    26    27   ar
    21    27    28   ar
    22    28    29   ar
    23     7     8    1
    24     8     9    2
    25    14    15    1
    26    15    10    1
    27     9     1    1
    28     9     4    1
    29    29    25   ar
    30    16    17    1
    31    20    21    1
    32    23    24    1
