@<TRIPOS>MOLECULE
*****
 25 28 0 0 0
SMALL
GASTEIGER

@<TRIPOS>ATOM
      1 C         140.3810  144.1800  163.1603 C.ar    1  UNL1        0.1472
      2 N         140.5926  144.0583  164.6404 N.ar    1  UNL1       -0.1563
      3 N         140.1046  142.7061  165.0686 N.ar    1  UNL1       -0.2147
      4 C         140.0613  142.0327  166.4084 C.ar    1  UNL1        0.0593
      5 C         139.5048  140.6453  166.5327 C.ar    1  UNL1        0.0051
      6 C         138.9917  139.9313  165.3174 C.ar    1  UNL1        0.0582
      7 C         138.4352  138.5439  165.4417 C.3     1  UNL1        0.0518
      8 N         139.0351  140.6047  163.9777 N.ar    1  UNL1       -0.2300
      9 C         139.5916  141.9921  163.8534 C.ar    1  UNL1        0.1826
     10 C         139.7624  142.9030  162.6740 C.ar    1  UNL1        0.1709
     11 C         139.4614  139.9720  167.8723 C.3     1  UNL1        0.0288
     12 C         139.9745  140.6860  169.0876 C.3     1  UNL1        0.0052
     13 C         140.5309  142.0734  168.9632 C.3     1  UNL1        0.0066
     14 C         140.5743  142.7468  167.6236 C.3     1  UNL1        0.0456
     15 S         139.3814  142.5916  161.2569 S.O2    1  UNL1        0.0324
     16 O         138.0184  143.1703  161.4962 O.2     1  UNL1       -0.1641
     17 O         140.7444  142.0129  161.0177 O.2     1  UNL1       -0.1641
     18 C         139.0006  142.2802  159.8399 C.ar    1  UNL1        0.1105
     19 C         139.2927  143.2686  158.7501 C.ar    1  UNL1        0.0187
     20 C         138.9118  142.9571  157.3332 C.ar    1  UNL1        0.0013
     21 C         138.2387  141.6571  157.0060 C.ar    1  UNL1        0.0001
     22 C         137.9466  140.6687  158.0957 C.ar    1  UNL1        0.0013
     23 C         138.3275  140.9802  159.5127 C.ar    1  UNL1        0.0187
     24 C         139.6434  146.2853  161.8285 C.3     1  UNL1        0.0758
     25 S         140.7274  145.3699  162.3151 S.3     1  UNL1       -0.0910
@<TRIPOS>BOND
     1    24    25    1
     2    25     1    1
     3     1     2   ar
     4     2     3   ar
     5     3     4   ar
     6     4     5   ar
     7     5     6   ar
     8     6     7    1
     9     6     8   ar
    10     8     9   ar
    11     9    10   ar
    12    10    15    1
    13    15    16    2
    14    15    17    2
    15    15    18    1
    16    18    19   ar
    17    19    20   ar
    18    20    21   ar
    19    21    22   ar
    20    22    23   ar
    21     5    11    1
    22    11    12    1
    23    12    13    1
    24    13    14    1
    25    10     1   ar
    26    23    18   ar
    27     9     3   ar
    28    14     4    1
@<TRIPOS>MOLECULE
*****
 25 28 0 0 0
SMALL
GASTEIGER

@<TRIPOS>ATOM
      1 C         140.5524  145.1090  161.3389 C.ar    1  UNL1        0.1472
      2 N         139.9378  145.8641  160.1978 N.ar    1  UNL1       -0.1563
      3 N         140.6281  145.4393  158.9357 N.ar    1  UNL1       -0.2147
      4 C         140.4430  145.8477  157.5042 C.ar    1  UNL1        0.0593
      5 C         141.2992  145.2385  156.4338 C.ar    1  UNL1        0.0051
      6 C         142.3405  144.2209  156.7949 C.ar    1  UNL1        0.0582
      7 C         143.1967  143.6116  155.7245 C.3     1  UNL1        0.0518
      8 N         142.5255  143.8125  158.2263 N.ar    1  UNL1       -0.2300
      9 C         141.6693  144.4218  159.2967 C.ar    1  UNL1        0.1826
     10 C         141.6225  144.2176  160.7820 C.ar    1  UNL1        0.1709
     11 C         141.1142  145.6468  155.0024 C.3     1  UNL1        0.0288
     12 C         140.0730  146.6644  154.6414 C.3     1  UNL1        0.0052
     13 C         139.2168  147.2736  155.7118 C.3     1  UNL1        0.0066
     14 C         139.4018  146.8653  157.1432 C.3     1  UNL1        0.0456
     15 S         142.4931  143.2856  161.5718 S.O2    1  UNL1        0.0324
     16 O         143.5067  144.3780  161.7435 O.2     1  UNL1       -0.1641
     17 O         141.4795  142.1934  161.4000 O.2     1  UNL1       -0.1641
     18 C         143.3636  142.3537  162.3614 C.ar    1  UNL1        0.1105
     19 C         144.7630  142.7574  162.7201 C.ar    1  UNL1        0.0187
     20 C         145.6334  141.8254  163.5098 C.ar    1  UNL1        0.0013
     21 C         145.1044  140.4896  163.9408 C.ar    1  UNL1        0.0001
     22 C         143.7050  140.0858  163.5822 C.ar    1  UNL1        0.0013
     23 C         142.8346  141.0179  162.7925 C.ar    1  UNL1        0.0187
     24 C         138.8556  144.6659  163.2559 C.3     1  UNL1        0.0758
     25 S         140.1648  145.2250  162.7834 S.3     1  UNL1       -0.0910
@<TRIPOS>BOND
     1    24    25    1
     2    25     1    1
     3     1     2   ar
     4     2     3   ar
     5     3     4   ar
     6     4     5   ar
     7     5     6   ar
     8     6     7    1
     9     6     8   ar
    10     8     9   ar
    11     9    10   ar
    12    10    15    1
    13    15    16    2
    14    15    17    2
    15    15    18    1
    16    18    19   ar
    17    19    20   ar
    18    20    21   ar
    19    21    22   ar
    20    22    23   ar
    21     5    11    1
    22    11    12    1
    23    12    13    1
    24    13    14    1
    25    10     1   ar
    26    23    18   ar
    27     9     3   ar
    28    14     4    1
@<TRIPOS>MOLECULE
*****
 25 28 0 0 0
SMALL
GASTEIGER

@<TRIPOS>ATOM
      1 C         142.8233  140.7421  163.5649 C.ar    1  UNL1        0.1472
      2 N         143.1005  141.1920  162.1611 N.ar    1  UNL1       -0.1563
      3 N         142.2903  142.4275  161.9019 N.ar    1  UNL1       -0.2147
      4 C         142.1605  143.3075  160.6941 C.ar    1  UNL1        0.0593
      5 C         141.2527  144.5011  160.7299 C.ar    1  UNL1        0.0051
      6 C         140.4749  144.8148  161.9736 C.ar    1  UNL1        0.0582
      7 C         139.5671  146.0084  162.0094 C.3     1  UNL1        0.0518
      8 N         140.6048  143.9348  163.1813 N.ar    1  UNL1       -0.2300
      9 C         141.5125  142.7412  163.1455 C.ar    1  UNL1        0.1826
     10 C         141.8419  141.6995  164.1733 C.ar    1  UNL1        0.1709
     11 C         141.1228  145.3811  159.5221 C.3     1  UNL1        0.0288
     12 C         141.9007  145.0675  158.2786 C.3     1  UNL1        0.0052
     13 C         142.8084  143.8738  158.2427 C.3     1  UNL1        0.0066
     14 C         142.9383  142.9939  159.4505 C.3     1  UNL1        0.0456
     15 S         141.2872  141.6278  165.5652 S.O2    1  UNL1        0.0324
     16 O         140.1278  140.8203  165.0616 O.2     1  UNL1       -0.1641
     17 O         142.4466  142.4354  166.0687 O.2     1  UNL1       -0.1641
     18 C         140.7326  141.5562  166.9570 C.ar    1  UNL1        0.1105
     19 C         140.8477  142.7392  167.8721 C.ar    1  UNL1        0.0187
     20 C         140.2931  142.6675  169.2639 C.ar    1  UNL1        0.0013
     21 C         139.6234  141.4128  169.7407 C.ar    1  UNL1        0.0001
     22 C         139.5083  140.2298  168.8257 C.ar    1  UNL1        0.0013
     23 C         140.0629  140.3016  167.4338 C.ar    1  UNL1        0.0187
     24 C         144.9115  139.4277  164.3784 C.3     1  UNL1        0.0758
     25 S         143.4224  139.5448  164.2415 S.3     1  UNL1       -0.0910
@<TRIPOS>BOND
     1    24    25    1
     2    25     1    1
     3     1     2   ar
     4     2     3   ar
     5     3     4   ar
     6     4     5   ar
     7     5     6   ar
     8     6     7    1
     9     6     8   ar
    10     8     9   ar
    11     9    10   ar
    12    10    15    1
    13    15    16    2
    14    15    17    2
    15    15    18    1
    16    18    19   ar
    17    19    20   ar
    18    20    21   ar
    19    21    22   ar
    20    22    23   ar
    21     5    11    1
    22    11    12    1
    23    12    13    1
    24    13    14    1
    25    10     1   ar
    26    23    18   ar
    27     9     3   ar
    28    14     4    1
@<TRIPOS>MOLECULE
*****
 25 28 0 0 0
SMALL
GASTEIGER

@<TRIPOS>ATOM
      1 C         141.7403  143.5124  163.4030 C.ar    1  UNL1        0.1472
      2 N         141.4232  143.0224  162.0212 N.ar    1  UNL1       -0.1563
      3 N         140.8878  141.6259  162.1362 N.ar    1  UNL1       -0.2147
      4 C         140.4110  140.6458  161.1055 C.ar    1  UNL1        0.0593
      5 C         139.9205  139.2927  161.5278 C.ar    1  UNL1        0.0051
      6 C         139.9066  138.9196  162.9806 C.ar    1  UNL1        0.0582
      7 C         139.4161  137.5664  163.4029 C.3     1  UNL1        0.0518
      8 N         140.3834  139.8997  164.0112 N.ar    1  UNL1       -0.2300
      9 C         140.8740  141.2529  163.5890 C.ar    1  UNL1        0.1826
     10 C         141.4008  142.4188  164.3719 C.ar    1  UNL1        0.1709
     11 C         139.4437  138.3126  160.4972 C.3     1  UNL1        0.0288
     12 C         139.4576  138.6856  159.0445 C.3     1  UNL1        0.0052
     13 C         139.9481  140.0388  158.6222 C.3     1  UNL1        0.0066
     14 C         140.4249  141.0189  159.6528 C.3     1  UNL1        0.0456
     15 S         141.5603  142.4803  165.8622 S.O2    1  UNL1        0.0324
     16 O         142.9589  141.9535  165.7343 O.2     1  UNL1       -0.1641
     17 O         140.1617  143.0070  165.9901 O.2     1  UNL1       -0.1641
     18 C         141.7196  142.5418  167.3525 C.ar    1  UNL1        0.1105
     19 C         140.5519  142.9147  168.2169 C.ar    1  UNL1        0.0187
     20 C         140.7113  142.9762  169.7071 C.ar    1  UNL1        0.0013
     21 C         142.0385  142.6647  170.3329 C.ar    1  UNL1        0.0001
     22 C         143.2062  142.2917  169.4684 C.ar    1  UNL1        0.0013
     23 C         143.0468  142.2302  167.9782 C.ar    1  UNL1        0.0187
     24 C         143.7677  145.1245  163.6055 C.3     1  UNL1        0.0758
     25 S         142.2988  144.8596  163.7543 S.3     1  UNL1       -0.0910
@<TRIPOS>BOND
     1    24    25    1
     2    25     1    1
     3     1     2   ar
     4     2     3   ar
     5     3     4   ar
     6     4     5   ar
     7     5     6   ar
     8     6     7    1
     9     6     8   ar
    10     8     9   ar
    11     9    10   ar
    12    10    15    1
    13    15    16    2
    14    15    17    2
    15    15    18    1
    16    18    19   ar
    17    19    20   ar
    18    20    21   ar
    19    21    22   ar
    20    22    23   ar
    21     5    11    1
    22    11    12    1
    23    12    13    1
    24    13    14    1
    25    10     1   ar
    26    23    18   ar
    27     9     3   ar
    28    14     4    1
@<TRIPOS>MOLECULE
*****
 25 28 0 0 0
SMALL
GASTEIGER

@<TRIPOS>ATOM
      1 C         139.3902  138.9231  159.0588 C.ar    1  UNL1        0.1472
      2 N         139.5031  138.2273  160.3829 N.ar    1  UNL1       -0.1563
      3 N         138.9882  139.1578  161.4408 N.ar    1  UNL1       -0.2147
      4 C         138.8562  139.0121  162.9279 C.ar    1  UNL1        0.0593
      5 C         138.2932  140.1372  163.7447 C.ar    1  UNL1        0.0051
      6 C         137.8621  141.4080  163.0743 C.ar    1  UNL1        0.0582
      7 C         137.2990  142.5331  163.8911 C.3     1  UNL1        0.0518
      8 N         137.9940  141.5537  161.5873 N.ar    1  UNL1       -0.2300
      9 C         138.5571  140.4286  160.7705 C.ar    1  UNL1        0.1826
     10 C         138.8055  140.2835  159.2984 C.ar    1  UNL1        0.1709
     11 C         138.1612  139.9916  165.2317 C.3     1  UNL1        0.0288
     12 C         138.5923  138.7208  165.9019 C.3     1  UNL1        0.0052
     13 C         139.1553  137.5957  165.0852 C.3     1  UNL1        0.0066
     14 C         139.2873  137.7414  163.5981 C.3     1  UNL1        0.0456
     15 S         138.5195  141.3174  158.2498 S.O2    1  UNL1        0.0324
     16 O         139.8273  141.9866  158.5529 O.2     1  UNL1       -0.1641
     17 O         137.2118  140.6482  157.9467 O.2     1  UNL1       -0.1641
     18 C         138.2335  142.3512  157.2013 C.ar    1  UNL1        0.1105
     19 C         139.2088  143.4651  156.9605 C.ar    1  UNL1        0.0187
     20 C         138.9226  144.4988  155.9119 C.ar    1  UNL1        0.0013
     21 C         137.6612  144.4187  155.1042 C.ar    1  UNL1        0.0001
     22 C         136.6859  143.3048  155.3451 C.ar    1  UNL1        0.0013
     23 C         136.9720  142.2711  156.3936 C.ar    1  UNL1        0.0187
     24 C         141.2293  138.0281  157.4567 C.3     1  UNL1        0.0758
     25 S         139.7915  138.3575  157.7287 S.3     1  UNL1       -0.0910
@<TRIPOS>BOND
     1    24    25    1
     2    25     1    1
     3     1     2   ar
     4     2     3   ar
     5     3     4   ar
     6     4     5   ar
     7     5     6   ar
     8     6     7    1
     9     6     8   ar
    10     8     9   ar
    11     9    10   ar
    12    10    15    1
    13    15    16    2
    14    15    17    2
    15    15    18    1
    16    18    19   ar
    17    19    20   ar
    18    20    21   ar
    19    21    22   ar
    20    22    23   ar
    21     5    11    1
    22    11    12    1
    23    12    13    1
    24    13    14    1
    25    10     1   ar
    26    23    18   ar
    27     9     3   ar
    28    14     4    1
@<TRIPOS>MOLECULE
*****
 25 28 0 0 0
SMALL
GASTEIGER

@<TRIPOS>ATOM
      1 C         140.9561  138.9981  164.2279 C.ar    1  UNL1        0.1472
      2 N         141.5471  139.0038  162.8492 N.ar    1  UNL1       -0.1563
      3 N         142.1968  140.3376  162.6289 N.ar    1  UNL1       -0.2147
      4 C         142.9365  140.9125  161.4574 C.ar    1  UNL1        0.0593
      5 C         143.4867  142.3061  161.5283 C.ar    1  UNL1        0.0051
      6 C         143.2973  143.1249  162.7709 C.ar    1  UNL1        0.0582
      7 C         143.8476  144.5185  162.8418 C.3     1  UNL1        0.0518
      8 N         142.5577  142.5500  163.9423 N.ar    1  UNL1       -0.2300
      9 C         142.0074  141.1564  163.8714 C.ar    1  UNL1        0.1826
     10 C         141.2406  140.3285  164.8596 C.ar    1  UNL1        0.1709
     11 C         144.2264  142.8810  160.3569 C.3     1  UNL1        0.0288
     12 C         144.4158  142.0622  159.1144 C.3     1  UNL1        0.0052
     13 C         143.8655  140.6686  159.0435 C.3     1  UNL1        0.0066
     14 C         143.1259  140.0937  160.2149 C.3     1  UNL1        0.0456
     15 S         140.8303  140.7561  166.2377 S.O2    1  UNL1        0.0324
     16 O         142.1172  140.2168  166.7881 O.2     1  UNL1       -0.1641
     17 O         139.5434  141.2953  165.6872 O.2     1  UNL1       -0.1641
     18 C         140.4200  141.1836  167.6156 C.ar    1  UNL1        0.1105
     19 C         139.6554  140.2409  168.4970 C.ar    1  UNL1        0.0187
     20 C         139.2451  140.6685  169.8749 C.ar    1  UNL1        0.0013
     21 C         139.5994  142.0389  170.3715 C.ar    1  UNL1        0.0001
     22 C         140.3639  142.9816  169.4902 C.ar    1  UNL1        0.0013
     23 C         140.7742  142.5540  168.1123 C.ar    1  UNL1        0.0187
     24 C         138.7189  137.9257  164.9992 C.3     1  UNL1        0.0758
     25 S         140.2113  137.8616  164.8633 S.3     1  UNL1       -0.0910
@<TRIPOS>BOND
     1    24    25    1
     2    25     1    1
     3     1     2   ar
     4     2     3   ar
     5     3     4   ar
     6     4     5   ar
     7     5     6   ar
     8     6     7    1
     9     6     8   ar
    10     8     9   ar
    11     9    10   ar
    12    10    15    1
    13    15    16    2
    14    15    17    2
    15    15    18    1
    16    18    19   ar
    17    19    20   ar
    18    20    21   ar
    19    21    22   ar
    20    22    23   ar
    21     5    11    1
    22    11    12    1
    23    12    13    1
    24    13    14    1
    25    10     1   ar
    26    23    18   ar
    27     9     3   ar
    28    14     4    1
@<TRIPOS>MOLECULE
*****
 25 28 0 0 0
SMALL
GASTEIGER

@<TRIPOS>ATOM
      1 C         139.3964  139.8801  164.8351 C.ar    1  UNL1        0.1472
      2 N         139.4385  139.3796  163.4216 N.ar    1  UNL1       -0.1563
      3 N         140.7556  139.7815  162.8268 N.ar    1  UNL1       -0.2147
      4 C         141.3518  139.5623  161.4679 C.ar    1  UNL1        0.0593
      5 C         142.7198  140.0919  161.1548 C.ar    1  UNL1        0.0051
      6 C         143.4916  140.8407  162.2006 C.ar    1  UNL1        0.0582
      7 C         144.8596  141.3703  161.8875 C.3     1  UNL1        0.0518
      8 N         142.8954  141.0599  163.5594 N.ar    1  UNL1       -0.2300
      9 C         141.5274  140.5303  163.8725 C.ar    1  UNL1        0.1826
     10 C         140.6873  140.5912  165.1137 C.ar    1  UNL1        0.1709
     11 C         143.3160  139.8727  159.7959 C.3     1  UNL1        0.0288
     12 C         142.5442  139.1239  158.7502 C.3     1  UNL1        0.0052
     13 C         141.1762  138.5943  159.0634 C.3     1  UNL1        0.0066
     14 C         140.5800  138.8135  160.4222 C.3     1  UNL1        0.0456
     15 S         141.0710  141.2481  166.4066 S.O2    1  UNL1        0.0324
     16 O         141.6878  139.9639  166.8760 O.2     1  UNL1       -0.1641
     17 O         140.4541  142.5322  165.9372 O.2     1  UNL1       -0.1641
     18 C         141.4545  141.9049  167.6994 C.ar    1  UNL1        0.1105
     19 C         140.4774  142.7967  168.4065 C.ar    1  UNL1        0.0187
     20 C         140.8611  143.4535  169.6993 C.ar    1  UNL1        0.0013
     21 C         142.2219  143.2186  170.2850 C.ar    1  UNL1        0.0001
     22 C         143.1990  142.3268  169.5779 C.ar    1  UNL1        0.0013
     23 C         142.8153  141.6700  168.2851 C.ar    1  UNL1        0.0187
     24 C         138.0653  138.3834  166.4898 C.3     1  UNL1        0.0758
     25 S         138.2623  139.7009  165.8004 S.3     1  UNL1       -0.0910
@<TRIPOS>BOND
     1    24    25    1
     2    25     1    1
     3     1     2   ar
     4     2     3   ar
     5     3     4   ar
     6     4     5   ar
     7     5     6   ar
     8     6     7    1
     9     6     8   ar
    10     8     9   ar
    11     9    10   ar
    12    10    15    1
    13    15    16    2
    14    15    17    2
    15    15    18    1
    16    18    19   ar
    17    19    20   ar
    18    20    21   ar
    19    21    22   ar
    20    22    23   ar
    21     5    11    1
    22    11    12    1
    23    12    13    1
    24    13    14    1
    25    10     1   ar
    26    23    18   ar
    27     9     3   ar
    28    14     4    1
@<TRIPOS>MOLECULE
*****
 25 28 0 0 0
SMALL
GASTEIGER

@<TRIPOS>ATOM
      1 C         140.2199  139.3142  163.4264 C.ar    1  UNL1        0.1472
      2 N         140.1804  139.9260  162.0573 N.ar    1  UNL1       -0.1563
      3 N         140.5470  141.3747  162.1863 N.ar    1  UNL1       -0.2147
      4 C         140.6729  142.4723  161.1716 C.ar    1  UNL1        0.0593
      5 C         141.0650  143.8536  161.6057 C.ar    1  UNL1        0.0051
      6 C         141.3311  144.1372  163.0545 C.ar    1  UNL1        0.0582
      7 C         141.7231  145.5185  163.4886 C.3     1  UNL1        0.0518
      8 N         141.2052  143.0396  164.0690 N.ar    1  UNL1       -0.2300
      9 C         140.8132  141.6584  163.6350 C.ar    1  UNL1        0.1826
     10 C         140.6110  140.3849  164.4014 C.ar    1  UNL1        0.1709
     11 C         141.1909  144.9512  160.5911 C.3     1  UNL1        0.0288
     12 C         140.9248  144.6675  159.1425 C.3     1  UNL1        0.0052
     13 C         140.5327  143.2862  158.7084 C.3     1  UNL1        0.0066
     14 C         140.4068  142.1886  159.7230 C.3     1  UNL1        0.0456
     15 S         140.7717  140.2125  165.8828 S.O2    1  UNL1        0.0324
     16 O         139.3215  140.5419  166.0785 O.2     1  UNL1       -0.1641
     17 O         142.2219  139.8830  165.6871 O.2     1  UNL1       -0.1641
     18 C         140.9324  140.0400  167.3641 C.ar    1  UNL1        0.1105
     19 C         142.2480  139.5920  167.9287 C.ar    1  UNL1        0.0187
     20 C         142.4086  139.4196  169.4101 C.ar    1  UNL1        0.0013
     21 C         141.2538  139.6951  170.3268 C.ar    1  UNL1        0.0001
     22 C         139.9383  140.1430  169.7623 C.ar    1  UNL1        0.0013
     23 C         139.7776  140.3155  168.2809 C.ar    1  UNL1        0.0187
     24 C         141.0436  136.9251  164.0294 C.3     1  UNL1        0.0758
     25 S         139.9209  137.8830  163.7615 S.3     1  UNL1       -0.0910
@<TRIPOS>BOND
     1    24    25    1
     2    25     1    1
     3     1     2   ar
     4     2     3   ar
     5     3     4   ar
     6     4     5   ar
     7     5     6   ar
     8     6     7    1
     9     6     8   ar
    10     8     9   ar
    11     9    10   ar
    12    10    15    1
    13    15    16    2
    14    15    17    2
    15    15    18    1
    16    18    19   ar
    17    19    20   ar
    18    20    21   ar
    19    21    22   ar
    20    22    23   ar
    21     5    11    1
    22    11    12    1
    23    12    13    1
    24    13    14    1
    25    10     1   ar
    26    23    18   ar
    27     9     3   ar
    28    14     4    1
@<TRIPOS>MOLECULE
*****
 25 28 0 0 0
SMALL
GASTEIGER

@<TRIPOS>ATOM
      1 C         143.3152  141.7296  164.4577 C.ar    1  UNL1        0.1472
      2 N         143.0702  142.0436  165.9038 N.ar    1  UNL1       -0.1563
      3 N         141.8412  141.3011  166.3376 N.ar    1  UNL1       -0.2147
      4 C         141.1242  141.2290  167.6532 C.ar    1  UNL1        0.0593
      5 C         139.8926  140.3839  167.7907 C.ar    1  UNL1        0.0051
      6 C         139.3780  139.6109  166.6126 C.ar    1  UNL1        0.0582
      7 C         138.1463  138.7659  166.7501 C.3     1  UNL1        0.0518
      8 N         140.0950  139.6831  165.2971 N.ar    1  UNL1       -0.2300
      9 C         141.3266  140.5282  165.1596 C.ar    1  UNL1        0.1826
     10 C         142.2376  140.7930  163.9977 C.ar    1  UNL1        0.1709
     11 C         139.1755  140.3117  169.1062 C.3     1  UNL1        0.0288
     12 C         139.6901  141.0846  170.2842 C.3     1  UNL1        0.0052
     13 C         140.9218  141.9297  170.1467 C.3     1  UNL1        0.0066
     14 C         141.6388  142.0019  168.8312 C.3     1  UNL1        0.0456
     15 S         142.0959  140.2215  162.6180 S.O2    1  UNL1        0.0324
     16 O         141.2029  141.3647  162.2363 O.2     1  UNL1       -0.1641
     17 O         142.9888  139.0784  162.9998 O.2     1  UNL1       -0.1641
     18 C         141.9542  139.6500  161.2384 C.ar    1  UNL1        0.1105
     19 C         143.1734  139.4006  160.4010 C.ar    1  UNL1        0.0187
     20 C         143.0316  138.8291  159.0214 C.ar    1  UNL1        0.0013
     21 C         141.6705  138.5070  158.4793 C.ar    1  UNL1        0.0001
     22 C         140.4513  138.7565  159.3167 C.ar    1  UNL1        0.0013
     23 C         140.5931  139.3280  160.6963 C.ar    1  UNL1        0.0187
     24 C         145.7452  141.5216  163.5621 C.3     1  UNL1        0.0758
     25 S         144.4404  142.2592  163.6187 S.3     1  UNL1       -0.0910
@<TRIPOS>BOND
     1    24    25    1
     2    25     1    1
     3     1     2   ar
     4     2     3   ar
     5     3     4   ar
     6     4     5   ar
     7     5     6   ar
     8     6     7    1
     9     6     8   ar
    10     8     9   ar
    11     9    10   ar
    12    10    15    1
    13    15    16    2
    14    15    17    2
    15    15    18    1
    16    18    19   ar
    17    19    20   ar
    18    20    21   ar
    19    21    22   ar
    20    22    23   ar
    21     5    11    1
    22    11    12    1
    23    12    13    1
    24    13    14    1
    25    10     1   ar
    26    23    18   ar
    27     9     3   ar
    28    14     4    1
