@<TRIPOS>MOLECULE
*****
 36 40 0 0 0
SMALL
GASTEIGER

@<TRIPOS>ATOM
      1 C         140.3352  144.6835  159.2110 C.ar    1  UNL1        0.2046
      2 N         140.7790  145.5734  160.3340 N.ar    1  UNL1       -0.1998
      3 C         140.3180  145.2996  161.7350 C.ar    1  UNL1        0.1389
      4 N         140.7619  146.1894  162.8580 N.pl3   1  UNL1       -0.3420
      5 C         139.4132  144.1359  162.0129 C.ar    1  UNL1        0.1169
      6 C         138.9694  143.2460  160.8898 C.ar    1  UNL1        0.2716
      7 O         138.0646  142.0824  161.1677 O.2     1  UNL1       -0.2663
      8 N         139.4304  143.5199  159.4889 N.ar    1  UNL1       -0.2662
      9 C         138.9865  142.6300  158.3658 C.3     1  UNL1        0.1363
     10 H         141.3557  146.9532  162.6756 H       1  UNL1        0.1437
     11 H         140.4593  146.0097  163.7774 H       1  UNL1        0.1437
     12 C         144.1111  145.2084  151.9668 C.3     1  UNL1        0.0335
     13 C         143.0299  145.4945  152.9663 C.3     1  UNL1        0.1294
     14 O         141.8247  146.3581  152.7385 O.3     1  UNL1       -0.3548
     15 C         141.0139  146.3645  154.0006 C.3     1  UNL1        0.1434
     16 C         141.7179  145.5049  155.0083 C.3     1  UNL1        0.0460
     17 C         140.4438  146.1159  155.5115 C.3     1  UNL1        0.0254
     18 C         139.9829  145.8421  156.9124 C.3     1  UNL1        0.0937
     19 N         140.7961  144.9573  157.8101 N.pl3   1  UNL1       -0.2794
     20 C         142.0703  144.3464  157.3069 C.3     1  UNL1        0.0937
     21 C         142.5312  144.6202  155.9060 C.3     1  UNL1        0.0254
     22 C         142.9639  144.9672  154.3690 C.3     1  UNL1        0.0807
     23 N         143.9676  144.0614  155.0185 N.3     1  UNL1       -0.3202
     24 H         143.6753  143.8602  155.9748 H       1  UNL1        0.1189
     25 H         144.8797  144.5177  155.0307 H       1  UNL1        0.1189
     26 S         138.9523  143.8621  163.4137 S.3     1  UNL1       -0.0785
     27 C         139.6368  142.8113  164.2366 C.ar    1  UNL1        0.0429
     28 C         141.0738  142.9851  164.6303 C.ar    1  UNL1        0.0280
     29 C         141.7583  141.9342  165.4532 C.ar    1  UNL1        0.0990
     30 N         141.0059  140.7096  165.8824 N.ar    1  UNL1       -0.2473
     31 C         139.5690  140.5358  165.4887 C.ar    1  UNL1        0.0696
     32 C         138.8844  141.5866  164.6658 C.ar    1  UNL1        0.0771
     33 CL        137.4475  141.4128  164.2721 Cl      1  UNL1       -0.0805
     34 C         138.8166  139.3112  165.9178 C.3     1  UNL1        0.0412
     35 C         138.4608  137.8681  165.7162 C.3     1  UNL1        0.0063
     36 C         137.8693  138.6333  166.8628 C.3     1  UNL1        0.0063
@<TRIPOS>BOND
     1    13    12    1
     2    13    14    1
     3    14    15    1
     4    15    16    1
     5    16    17    1
     6    17    18    1
     7    18    19    1
     8    19     1    1
     9     1     2   ar
    10     2     3   ar
    11     3     4    1
    12     3     5   ar
    13     5    26    1
    14    26    27    1
    15    27    28   ar
    16    28    29   ar
    17    29    30   ar
    18    30    31   ar
    19    31    34    1
    20    34    35    1
    21    35    36    1
    22    31    32   ar
    23    32    33    1
    24     5     6   ar
    25     6     7    2
    26     6     8   ar
    27     8     9    1
    28    19    20    1
    29    20    21    1
    30    16    22    1
    31    22    23    1
    32    22    13    1
    33    21    16    1
    34     8     1   ar
    35    32    27   ar
    36    36    34    1
    37     4    10    1
    38     4    11    1
    39    23    24    1
    40    23    25    1
@<TRIPOS>MOLECULE
*****
 36 40 0 0 0
SMALL
GASTEIGER

@<TRIPOS>ATOM
      1 C         138.3376  140.8452  160.0604 C.ar    1  UNL1        0.2046
      2 N         137.6761  141.3876  161.2925 N.ar    1  UNL1       -0.1998
      3 C         137.8461  140.6842  162.6065 C.ar    1  UNL1        0.1389
      4 N         137.1846  141.2266  163.8386 N.pl3   1  UNL1       -0.3420
      5 C         138.6776  139.4384  162.6883 C.ar    1  UNL1        0.1169
      6 C         139.3390  138.8960  161.4560 C.ar    1  UNL1        0.2716
      7 O         140.1705  137.6502  161.5378 O.2     1  UNL1       -0.2663
      8 N         139.1690  139.5994  160.1422 N.ar    1  UNL1       -0.2662
      9 C         139.8305  139.0570  158.9099 C.3     1  UNL1        0.1363
     10 H         136.6389  142.0443  163.7850 H       1  UNL1        0.1437
     11 H         137.2962  140.7650  164.7010 H       1  UNL1        0.1437
     12 C         136.1844  143.6177  152.6652 C.3     1  UNL1        0.0335
     13 C         136.9942  143.5831  153.9273 C.3     1  UNL1        0.1294
     14 O         138.1382  144.4924  154.2661 O.3     1  UNL1       -0.3548
     15 C         138.6533  144.1043  155.6204 C.3     1  UNL1        0.1434
     16 C         137.8278  142.9553  156.1187 C.3     1  UNL1        0.0460
     17 C         138.9034  143.3911  157.0690 C.3     1  UNL1        0.0254
     18 C         139.0733  142.6877  158.3829 C.3     1  UNL1        0.0937
     19 N         138.1676  141.5486  158.7464 N.pl3   1  UNL1       -0.2794
     20 C         137.0920  141.1128  157.7961 C.3     1  UNL1        0.0937
     21 C         136.9221  141.8162  156.4822 C.3     1  UNL1        0.0254
     22 C         136.8024  142.6332  155.0722 C.3     1  UNL1        0.0807
     23 N         135.7670  141.5511  155.1561 N.3     1  UNL1       -0.3202
     24 H         135.8626  141.0571  156.0433 H       1  UNL1        0.1189
     25 H         135.8976  140.8951  154.3860 H       1  UNL1        0.1189
     26 S         138.8475  138.7351  164.0021 S.3     1  UNL1       -0.0785
     27 C         139.8455  139.2421  165.0006 C.ar    1  UNL1        0.0429
     28 C         141.2465  139.5570  164.5672 C.ar    1  UNL1        0.0280
     29 C         142.2444  140.0641  165.5658 C.ar    1  UNL1        0.0990
     30 N         141.8413  140.2562  166.9977 N.ar    1  UNL1       -0.2473
     31 C         140.4402  139.9413  167.4312 C.ar    1  UNL1        0.0696
     32 C         139.4423  139.4342  166.4327 C.ar    1  UNL1        0.0771
     33 CL        138.0413  139.1193  166.8661 Cl      1  UNL1       -0.0805
     34 C         140.0371  140.1334  168.8631 C.3     1  UNL1        0.0412
     35 C         139.1032  140.7144  169.8830 C.3     1  UNL1        0.0063
     36 C         140.2728  139.8851  170.3235 C.3     1  UNL1        0.0063
@<TRIPOS>BOND
     1    13    12    1
     2    13    14    1
     3    14    15    1
     4    15    16    1
     5    16    17    1
     6    17    18    1
     7    18    19    1
     8    19     1    1
     9     1     2   ar
    10     2     3   ar
    11     3     4    1
    12     3     5   ar
    13     5    26    1
    14    26    27    1
    15    27    28   ar
    16    28    29   ar
    17    29    30   ar
    18    30    31   ar
    19    31    34    1
    20    34    35    1
    21    35    36    1
    22    31    32   ar
    23    32    33    1
    24     5     6   ar
    25     6     7    2
    26     6     8   ar
    27     8     9    1
    28    19    20    1
    29    20    21    1
    30    16    22    1
    31    22    23    1
    32    22    13    1
    33    21    16    1
    34     8     1   ar
    35    32    27   ar
    36    36    34    1
    37     4    10    1
    38     4    11    1
    39    23    24    1
    40    23    25    1
@<TRIPOS>MOLECULE
*****
 36 40 0 0 0
SMALL
GASTEIGER

@<TRIPOS>ATOM
      1 C         141.6053  143.8523  160.8186 C.ar    1  UNL1        0.2046
      2 N         143.0697  143.5278  160.8200 N.ar    1  UNL1       -0.1998
      3 C         143.7612  143.1870  162.1069 C.ar    1  UNL1        0.1389
      4 N         145.2256  142.8626  162.1083 N.pl3   1  UNL1       -0.3420
      5 C         142.9881  143.1707  163.3922 C.ar    1  UNL1        0.1169
      6 C         141.5235  143.4952  163.3907 C.ar    1  UNL1        0.2716
      7 O         140.7504  143.4789  164.6760 O.2     1  UNL1       -0.2663
      8 N         140.8322  143.8360  162.1039 N.ar    1  UNL1       -0.2662
      9 C         139.3676  144.1605  162.1024 C.3     1  UNL1        0.1363
     10 H         145.7330  142.8733  161.2647 H       1  UNL1        0.1437
     11 H         145.6794  142.6389  162.9529 H       1  UNL1        0.1437
     12 C         137.2496  144.1823  153.8954 C.3     1  UNL1        0.0335
     13 C         138.1645  144.7130  154.9589 C.3     1  UNL1        0.1294
     14 O         138.7697  146.0851  154.9970 O.3     1  UNL1       -0.3548
     15 C         139.6143  146.1849  156.2327 C.3     1  UNL1        0.1434
     16 C         139.5311  144.8746  156.9582 C.3     1  UNL1        0.0460
     17 C         140.4008  145.8924  157.6347 C.3     1  UNL1        0.0254
     18 C         141.0922  145.5516  158.9214 C.3     1  UNL1        0.0937
     19 N         140.9139  144.1930  159.5317 N.pl3   1  UNL1       -0.2794
     20 C         140.0441  143.1753  158.8553 C.3     1  UNL1        0.0937
     21 C         139.3527  143.5161  157.5685 C.3     1  UNL1        0.0254
     22 C         138.6351  143.9650  156.1709 C.3     1  UNL1        0.0807
     23 N         138.2733  142.5549  156.5322 N.3     1  UNL1       -0.3202
     24 H         138.7327  142.2993  157.4063 H       1  UNL1        0.1189
     25 H         138.5788  141.9248  155.7906 H       1  UNL1        0.1189
     26 S         143.6794  142.8300  164.6790 S.3     1  UNL1       -0.0785
     27 C         143.5687  141.4458  165.2461 C.ar    1  UNL1        0.0429
     28 C         144.0468  140.2683  164.4492 C.ar    1  UNL1        0.0280
     29 C         143.9361  138.8841  165.0164 C.ar    1  UNL1        0.0990
     30 N         143.3473  138.6773  166.3804 N.ar    1  UNL1       -0.2473
     31 C         142.8692  139.8548  167.1773 C.ar    1  UNL1        0.0696
     32 C         142.9799  141.2390  166.6102 C.ar    1  UNL1        0.0771
     33 CL        142.5018  142.4164  167.4070 Cl      1  UNL1       -0.0805
     34 C         142.2804  139.6480  168.5413 C.3     1  UNL1        0.0412
     35 C         141.1402  139.8105  169.5022 C.3     1  UNL1        0.0063
     36 C         142.4008  139.1275  169.9429 C.3     1  UNL1        0.0063
@<TRIPOS>BOND
     1    13    12    1
     2    13    14    1
     3    14    15    1
     4    15    16    1
     5    16    17    1
     6    17    18    1
     7    18    19    1
     8    19     1    1
     9     1     2   ar
    10     2     3   ar
    11     3     4    1
    12     3     5   ar
    13     5    26    1
    14    26    27    1
    15    27    28   ar
    16    28    29   ar
    17    29    30   ar
    18    30    31   ar
    19    31    34    1
    20    34    35    1
    21    35    36    1
    22    31    32   ar
    23    32    33    1
    24     5     6   ar
    25     6     7    2
    26     6     8   ar
    27     8     9    1
    28    19    20    1
    29    20    21    1
    30    16    22    1
    31    22    23    1
    32    22    13    1
    33    21    16    1
    34     8     1   ar
    35    32    27   ar
    36    36    34    1
    37     4    10    1
    38     4    11    1
    39    23    24    1
    40    23    25    1
@<TRIPOS>MOLECULE
*****
 36 40 0 0 0
SMALL
GASTEIGER

@<TRIPOS>ATOM
      1 C         142.5713  141.9308  160.5621 C.ar    1  UNL1        0.2046
      2 N         141.2300  142.5860  160.4156 N.ar    1  UNL1       -0.1998
      3 C         140.3765  142.8263  161.6255 C.ar    1  UNL1        0.1389
      4 N         139.0352  143.4815  161.4790 N.pl3   1  UNL1       -0.3420
      5 C         140.8644  142.4114  162.9819 C.ar    1  UNL1        0.1169
      6 C         142.2058  141.7562  163.1284 C.ar    1  UNL1        0.2716
      7 O         142.6937  141.3412  164.4848 O.2     1  UNL1       -0.2663
      8 N         143.0592  141.5159  161.9185 N.ar    1  UNL1       -0.2662
      9 C         144.4006  140.8606  162.0650 C.3     1  UNL1        0.1363
     10 H         138.7150  143.7539  160.5888 H       1  UNL1        0.1437
     11 H         138.4750  143.6393  162.2731 H       1  UNL1        0.1437
     12 C         148.0502  141.9398  154.4799 C.3     1  UNL1        0.0335
     13 C         146.8656  141.4349  155.2490 C.3     1  UNL1        0.1294
     14 O         146.0247  140.2450  154.8922 O.3     1  UNL1       -0.3548
     15 C         144.9532  140.1059  155.9327 C.3     1  UNL1        0.1434
     16 C         145.1317  141.2098  156.9325 C.3     1  UNL1        0.0460
     17 C         143.9769  140.2995  157.2284 C.3     1  UNL1        0.0254
     18 C         143.1234  140.5399  158.4383 C.3     1  UNL1        0.0937
     19 N         143.4248  141.6905  159.3522 N.pl3   1  UNL1       -0.2794
     20 C         144.5797  142.6008  159.0562 C.3     1  UNL1        0.0937
     21 C         145.4331  142.3604  157.8464 C.3     1  UNL1        0.0254
     22 C         146.3137  142.0312  156.5099 C.3     1  UNL1        0.0807
     23 N         146.8495  143.2370  157.2231 N.3     1  UNL1       -0.3202
     24 H         146.2840  143.4211  158.0518 H       1  UNL1        0.1189
     25 H         146.8134  144.0442  156.6006 H       1  UNL1        0.1189
     26 S         140.0109  142.6517  164.1918 S.3     1  UNL1       -0.0785
     27 C         139.5392  141.4928  165.0190 C.ar    1  UNL1        0.0429
     28 C         138.7279  140.4010  164.3868 C.ar    1  UNL1        0.0280
     29 C         138.2562  139.2420  165.2141 C.ar    1  UNL1        0.0990
     30 N         138.5959  139.1748  166.6735 N.ar    1  UNL1       -0.2473
     31 C         139.4072  140.2666  167.3058 C.ar    1  UNL1        0.0696
     32 C         139.8789  141.4255  166.4786 C.ar    1  UNL1        0.0771
     33 CL        140.6903  142.5173  167.1108 Cl      1  UNL1       -0.0805
     34 C         139.7469  140.1994  168.7652 C.3     1  UNL1        0.0412
     35 C         140.7305  139.9011  169.8577 C.3     1  UNL1        0.0063
     36 C         139.3516  140.3814  170.2007 C.3     1  UNL1        0.0063
@<TRIPOS>BOND
     1    13    12    1
     2    13    14    1
     3    14    15    1
     4    15    16    1
     5    16    17    1
     6    17    18    1
     7    18    19    1
     8    19     1    1
     9     1     2   ar
    10     2     3   ar
    11     3     4    1
    12     3     5   ar
    13     5    26    1
    14    26    27    1
    15    27    28   ar
    16    28    29   ar
    17    29    30   ar
    18    30    31   ar
    19    31    34    1
    20    34    35    1
    21    35    36    1
    22    31    32   ar
    23    32    33    1
    24     5     6   ar
    25     6     7    2
    26     6     8   ar
    27     8     9    1
    28    19    20    1
    29    20    21    1
    30    16    22    1
    31    22    23    1
    32    22    13    1
    33    21    16    1
    34     8     1   ar
    35    32    27   ar
    36    36    34    1
    37     4    10    1
    38     4    11    1
    39    23    24    1
    40    23    25    1
@<TRIPOS>MOLECULE
*****
 36 40 0 0 0
SMALL
GASTEIGER

@<TRIPOS>ATOM
      1 C         140.8011  138.9748  162.2673 C.ar    1  UNL1        0.2046
      2 N         141.7865  137.8970  161.9248 N.ar    1  UNL1       -0.1998
      3 C         142.3062  137.7736  160.5231 C.ar    1  UNL1        0.1389
      4 N         143.2916  136.6959  160.1807 N.pl3   1  UNL1       -0.3420
      5 C         141.8404  138.7281  159.4638 C.ar    1  UNL1        0.1169
      6 C         140.8550  139.8060  159.8063 C.ar    1  UNL1        0.2716
      7 O         140.3892  140.7605  158.7471 O.2     1  UNL1       -0.2663
      8 N         140.3353  139.9293  161.2080 N.ar    1  UNL1       -0.2662
      9 C         139.3499  141.0071  161.5505 C.3     1  UNL1        0.1363
     10 H         143.5973  136.0694  160.8759 H       1  UNL1        0.1437
     11 H         143.6326  136.6149  159.2607 H       1  UNL1        0.1437
     12 C         139.2691  140.6169  170.1392 C.3     1  UNL1        0.0335
     13 C         139.0156  139.9862  168.8022 C.3     1  UNL1        0.1294
     14 O         137.8690  139.0828  168.4566 O.3     1  UNL1       -0.3548
     15 C         138.0090  138.6864  167.0166 C.3     1  UNL1        0.1434
     16 C         139.2420  139.3447  166.4723 C.3     1  UNL1        0.0460
     17 C         138.5090  138.5008  165.4722 C.3     1  UNL1        0.0254
     18 C         139.0287  138.3775  164.0705 C.3     1  UNL1        0.0937
     19 N         140.2814  139.0981  163.6690 N.pl3   1  UNL1       -0.2794
     20 C         141.0145  139.9421  164.6691 C.3     1  UNL1        0.0937
     21 C         140.4948  140.0654  166.0708 C.3     1  UNL1        0.0254
     22 C         139.8642  140.1481  167.5759 C.3     1  UNL1        0.0807
     23 N         141.1151  140.9690  167.4714 N.3     1  UNL1       -0.3202
     24 H         141.4884  140.9010  166.5246 H       1  UNL1        0.1189
     25 H         141.8068  140.6209  168.1353 H       1  UNL1        0.1189
     26 S         142.3600  138.6048  158.0622 S.3     1  UNL1       -0.0785
     27 C         141.5458  137.8971  157.0200 C.ar    1  UNL1        0.0429
     28 C         140.3473  138.5704  156.4198 C.ar    1  UNL1        0.0280
     29 C         139.5330  137.8626  155.3776 C.ar    1  UNL1        0.0990
     30 N         139.9173  136.4817  154.9357 N.ar    1  UNL1       -0.2473
     31 C         141.1158  135.8084  155.5360 C.ar    1  UNL1        0.0696
     32 C         141.9300  136.5161  156.5781 C.ar    1  UNL1        0.0771
     33 CL        143.1285  135.8429  157.1784 Cl      1  UNL1       -0.0805
     34 C         141.5000  134.4275  155.0941 C.3     1  UNL1        0.0412
     35 C         141.4760  132.9425  155.3043 C.3     1  UNL1        0.0063
     36 C         142.1897  133.5206  154.1184 C.3     1  UNL1        0.0063
@<TRIPOS>BOND
     1    13    12    1
     2    13    14    1
     3    14    15    1
     4    15    16    1
     5    16    17    1
     6    17    18    1
     7    18    19    1
     8    19     1    1
     9     1     2   ar
    10     2     3   ar
    11     3     4    1
    12     3     5   ar
    13     5    26    1
    14    26    27    1
    15    27    28   ar
    16    28    29   ar
    17    29    30   ar
    18    30    31   ar
    19    31    34    1
    20    34    35    1
    21    35    36    1
    22    31    32   ar
    23    32    33    1
    24     5     6   ar
    25     6     7    2
    26     6     8   ar
    27     8     9    1
    28    19    20    1
    29    20    21    1
    30    16    22    1
    31    22    23    1
    32    22    13    1
    33    21    16    1
    34     8     1   ar
    35    32    27   ar
    36    36    34    1
    37     4    10    1
    38     4    11    1
    39    23    24    1
    40    23    25    1
@<TRIPOS>MOLECULE
*****
 36 40 0 0 0
SMALL
GASTEIGER

@<TRIPOS>ATOM
      1 C         142.9469  138.1965  156.4820 C.ar    1  UNL1        0.2046
      2 N         144.2672  138.9071  156.4423 N.ar    1  UNL1       -0.1998
      3 C         144.3547  140.3502  156.8425 C.ar    1  UNL1        0.1389
      4 N         145.6750  141.0608  156.8028 N.pl3   1  UNL1       -0.3420
      5 C         143.1217  141.0825  157.2825 C.ar    1  UNL1        0.1169
      6 C         141.8013  140.3718  157.3222 C.ar    1  UNL1        0.2716
      7 O         140.5684  141.1041  157.7621 O.2     1  UNL1       -0.2663
      8 N         141.7139  138.9288  156.9220 N.ar    1  UNL1       -0.2662
      9 C         140.3935  138.2181  156.9617 C.3     1  UNL1        0.1363
     10 H         146.4842  140.5801  156.5141 H       1  UNL1        0.1437
     11 H         145.7324  142.0079  157.0655 H       1  UNL1        0.1437
     12 C         142.7010  130.0352  155.8958 C.3     1  UNL1        0.0335
     13 C         142.6519  131.4427  155.3798 C.3     1  UNL1        0.1294
     14 O         142.4480  131.8514  153.9509 O.3     1  UNL1       -0.3548
     15 C         142.4682  133.3501  153.8901 C.3     1  UNL1        0.1434
     16 C         142.6845  133.8676  155.2813 C.3     1  UNL1        0.0460
     17 C         142.5517  134.9430  154.2440 C.3     1  UNL1        0.0254
     18 C         142.6391  136.3859  154.6443 C.3     1  UNL1        0.0937
     19 N         142.8594  136.7535  156.0818 N.pl3   1  UNL1       -0.2794
     20 C         142.9922  135.6781  157.1190 C.3     1  UNL1        0.0937
     21 C         142.9048  134.2352  156.7188 C.3     1  UNL1        0.0254
     22 C         142.7980  132.6888  156.2019 C.3     1  UNL1        0.0807
     23 N         143.0189  132.7461  157.6844 N.3     1  UNL1       -0.3202
     24 H         143.0819  133.7198  157.9814 H       1  UNL1        0.1189
     25 H         143.8862  132.2626  157.9179 H       1  UNL1        0.1189
     26 S         143.2091  142.5254  157.6827 S.3     1  UNL1       -0.0785
     27 C         143.2746  142.8985  159.1340 C.ar    1  UNL1        0.0429
     28 C         144.4461  142.4692  159.9667 C.ar    1  UNL1        0.0280
     29 C         144.5115  142.8423  161.4181 C.ar    1  UNL1        0.0990
     30 N         143.4055  143.6447  162.0368 N.ar    1  UNL1       -0.2473
     31 C         142.2340  144.0740  161.2042 C.ar    1  UNL1        0.0696
     32 C         142.1685  143.7009  159.7528 C.ar    1  UNL1        0.0771
     33 CL        140.9970  144.1302  158.9202 Cl      1  UNL1       -0.0805
     34 C         141.1280  144.8764  161.8229 C.3     1  UNL1        0.0412
     35 C         140.1276  145.9908  161.7386 C.3     1  UNL1        0.0063
     36 C         140.2127  145.1517  162.9790 C.3     1  UNL1        0.0063
@<TRIPOS>BOND
     1    13    12    1
     2    13    14    1
     3    14    15    1
     4    15    16    1
     5    16    17    1
     6    17    18    1
     7    18    19    1
     8    19     1    1
     9     1     2   ar
    10     2     3   ar
    11     3     4    1
    12     3     5   ar
    13     5    26    1
    14    26    27    1
    15    27    28   ar
    16    28    29   ar
    17    29    30   ar
    18    30    31   ar
    19    31    34    1
    20    34    35    1
    21    35    36    1
    22    31    32   ar
    23    32    33    1
    24     5     6   ar
    25     6     7    2
    26     6     8   ar
    27     8     9    1
    28    19    20    1
    29    20    21    1
    30    16    22    1
    31    22    23    1
    32    22    13    1
    33    21    16    1
    34     8     1   ar
    35    32    27   ar
    36    36    34    1
    37     4    10    1
    38     4    11    1
    39    23    24    1
    40    23    25    1
@<TRIPOS>MOLECULE
*****
 36 40 0 0 0
SMALL
GASTEIGER

@<TRIPOS>ATOM
      1 C         140.3999  139.0192  158.9961 C.ar    1  UNL1        0.2046
      2 N         139.4451  138.2453  158.1363 N.ar    1  UNL1       -0.1998
      3 C         139.9474  137.5190  156.9237 C.ar    1  UNL1        0.1389
      4 N         138.9925  136.7451  156.0639 N.pl3   1  UNL1       -0.3420
      5 C         141.4045  137.5668  156.5709 C.ar    1  UNL1        0.1169
      6 C         142.3594  138.3407  157.4308 C.ar    1  UNL1        0.2716
      7 O         143.8165  138.3885  157.0781 O.2     1  UNL1       -0.2663
      8 N         141.8571  139.0669  158.6434 N.ar    1  UNL1       -0.2662
      9 C         142.8119  139.8409  159.5032 C.3     1  UNL1        0.1363
     10 H         138.0362  136.7138  156.2954 H       1  UNL1        0.1437
     11 H         139.3222  136.2685  155.2680 H       1  UNL1        0.1437
     12 C         137.6288  144.2849  164.6179 C.3     1  UNL1        0.0335
     13 C         138.0810  142.9506  164.1032 C.3     1  UNL1        0.1294
     14 O         138.1592  141.6799  164.8966 O.3     1  UNL1       -0.3548
     15 C         138.6610  140.5965  163.9884 C.3     1  UNL1        0.1434
     16 C         138.8931  141.1977  162.6339 C.3     1  UNL1        0.0460
     17 C         139.2119  139.7342  162.7146 C.3     1  UNL1        0.0254
     18 C         139.7141  139.0081  161.5020 C.3     1  UNL1        0.0937
     19 N         139.8976  139.7454  160.2087 N.pl3   1  UNL1       -0.2794
     20 C         139.5788  141.2089  160.1280 C.3     1  UNL1        0.0937
     21 C         139.0765  141.9350  161.3405 C.3     1  UNL1        0.0254
     22 C         138.5346  142.6526  162.7048 C.3     1  UNL1        0.0807
     23 N         138.6155  143.6366  161.5756 N.3     1  UNL1       -0.3202
     24 H         138.9556  143.1651  160.7375 H       1  UNL1        0.1189
     25 H         139.2565  144.3894  161.8260 H       1  UNL1        0.1189
     26 S         141.9069  136.8406  155.3584 S.3     1  UNL1       -0.0785
     27 C         142.3552  135.4136  155.4710 C.ar    1  UNL1        0.0429
     28 C         142.8998  134.8989  156.7704 C.ar    1  UNL1        0.0280
     29 C         143.3482  133.4719  156.8830 C.ar    1  UNL1        0.0990
     30 N         143.2520  132.5597  155.6962 N.ar    1  UNL1       -0.2473
     31 C         142.7074  133.0744  154.3968 C.ar    1  UNL1        0.0696
     32 C         142.2590  134.5013  154.2841 C.ar    1  UNL1        0.0771
     33 CL        141.7144  135.0161  152.9847 Cl      1  UNL1       -0.0805
     34 C         142.6112  132.1622  153.2099 C.3     1  UNL1        0.0412
     35 C         141.8053  131.5555  152.0998 C.3     1  UNL1        0.0063
     36 C         143.2504  131.1888  152.2645 C.3     1  UNL1        0.0063
@<TRIPOS>BOND
     1    13    12    1
     2    13    14    1
     3    14    15    1
     4    15    16    1
     5    16    17    1
     6    17    18    1
     7    18    19    1
     8    19     1    1
     9     1     2   ar
    10     2     3   ar
    11     3     4    1
    12     3     5   ar
    13     5    26    1
    14    26    27    1
    15    27    28   ar
    16    28    29   ar
    17    29    30   ar
    18    30    31   ar
    19    31    34    1
    20    34    35    1
    21    35    36    1
    22    31    32   ar
    23    32    33    1
    24     5     6   ar
    25     6     7    2
    26     6     8   ar
    27     8     9    1
    28    19    20    1
    29    20    21    1
    30    16    22    1
    31    22    23    1
    32    22    13    1
    33    21    16    1
    34     8     1   ar
    35    32    27   ar
    36    36    34    1
    37     4    10    1
    38     4    11    1
    39    23    24    1
    40    23    25    1
@<TRIPOS>MOLECULE
*****
 36 40 0 0 0
SMALL
GASTEIGER

@<TRIPOS>ATOM
      1 C         138.9486  142.3937  160.2608 C.ar    1  UNL1        0.2046
      2 N         138.0662  143.2046  161.1629 N.ar    1  UNL1       -0.1998
      3 C         138.3524  143.2669  162.6341 C.ar    1  UNL1        0.1389
      4 N         137.4699  144.0778  163.5361 N.pl3   1  UNL1       -0.3420
      5 C         139.5210  142.5183  163.2031 C.ar    1  UNL1        0.1169
      6 C         140.4035  141.7074  162.3010 C.ar    1  UNL1        0.2716
      7 O         141.5721  140.9587  162.8700 O.2     1  UNL1       -0.2663
      8 N         140.1173  141.6451  160.8299 N.ar    1  UNL1       -0.2662
      9 C         140.9997  140.8342  159.9278 C.3     1  UNL1        0.1363
     10 H         136.7029  144.5691  163.1626 H       1  UNL1        0.1437
     11 H         137.6578  144.1187  164.5017 H       1  UNL1        0.1437
     12 C         136.5300  140.7115  152.6233 C.3     1  UNL1        0.0335
     13 C         137.2415  141.4909  153.6892 C.3     1  UNL1        0.1294
     14 O         138.0581  142.7314  153.4778 O.3     1  UNL1       -0.3548
     15 C         138.5826  143.1739  154.8118 C.3     1  UNL1        0.1434
     16 C         138.0902  142.2070  155.8475 C.3     1  UNL1        0.0460
     17 C         138.9404  143.3123  156.4000 C.3     1  UNL1        0.0254
     18 C         139.2266  143.3745  157.8711 C.3     1  UNL1        0.0937
     19 N         138.6624  142.3315  158.7897 N.pl3   1  UNL1       -0.2794
     20 C         137.8122  141.2262  158.2371 C.3     1  UNL1        0.0937
     21 C         137.5261  141.1639  156.7660 C.3     1  UNL1        0.0254
     22 C         137.2613  141.1669  155.1536 C.3     1  UNL1        0.0807
     23 N         136.5731  140.0065  155.8093 N.3     1  UNL1       -0.3202
     24 H         136.7534  140.0272  156.8130 H       1  UNL1        0.1189
     25 H         136.9293  139.1346  155.4178 H       1  UNL1        0.1189
     26 S         139.8072  142.5805  164.6742 S.3     1  UNL1       -0.0785
     27 C         139.4223  141.4346  165.5623 C.ar    1  UNL1        0.0429
     28 C         138.4261  140.4190  165.0868 C.ar    1  UNL1        0.0280
     29 C         138.0412  139.2731  165.9749 C.ar    1  UNL1        0.0990
     30 N         138.6525  139.1427  167.3384 N.ar    1  UNL1       -0.2473
     31 C         139.6488  140.1583  167.8139 C.ar    1  UNL1        0.0696
     32 C         140.0337  141.3042  166.9259 C.ar    1  UNL1        0.0771
     33 CL        141.0300  142.3198  167.4013 Cl      1  UNL1       -0.0805
     34 C         140.2601  140.0280  169.1774 C.3     1  UNL1        0.0412
     35 C         140.1907  140.2517  170.6590 C.3     1  UNL1        0.0063
     36 C         141.3886  139.5784  170.0575 C.3     1  UNL1        0.0063
@<TRIPOS>BOND
     1    13    12    1
     2    13    14    1
     3    14    15    1
     4    15    16    1
     5    16    17    1
     6    17    18    1
     7    18    19    1
     8    19     1    1
     9     1     2   ar
    10     2     3   ar
    11     3     4    1
    12     3     5   ar
    13     5    26    1
    14    26    27    1
    15    27    28   ar
    16    28    29   ar
    17    29    30   ar
    18    30    31   ar
    19    31    34    1
    20    34    35    1
    21    35    36    1
    22    31    32   ar
    23    32    33    1
    24     5     6   ar
    25     6     7    2
    26     6     8   ar
    27     8     9    1
    28    19    20    1
    29    20    21    1
    30    16    22    1
    31    22    23    1
    32    22    13    1
    33    21    16    1
    34     8     1   ar
    35    32    27   ar
    36    36    34    1
    37     4    10    1
    38     4    11    1
    39    23    24    1
    40    23    25    1
@<TRIPOS>MOLECULE
*****
 36 40 0 0 0
SMALL
GASTEIGER

@<TRIPOS>ATOM
      1 C         142.2964  138.3882  160.0175 C.ar    1  UNL1        0.2046
      2 N         141.8381  137.6560  161.2438 N.ar    1  UNL1       -0.1998
      3 C         142.4299  137.9892  162.5813 C.ar    1  UNL1        0.1389
      4 N         141.9716  137.2571  163.8076 N.pl3   1  UNL1       -0.3420
      5 C         143.4800  139.0546  162.6924 C.ar    1  UNL1        0.1169
      6 C         143.9382  139.7867  161.4660 C.ar    1  UNL1        0.2716
      7 O         144.9883  140.8521  161.5771 O.2     1  UNL1       -0.2663
      8 N         143.3464  139.4535  160.1286 N.ar    1  UNL1       -0.2662
      9 C         143.8047  140.1857  158.9022 C.3     1  UNL1        0.1363
     10 H         141.2824  136.5579  163.7347 H       1  UNL1        0.1437
     11 H         142.3600  137.4758  164.6854 H       1  UNL1        0.1437
     12 C         137.8705  137.5933  153.1771 C.3     1  UNL1        0.0335
     13 C         139.0307  137.3295  154.0904 C.3     1  UNL1        0.1294
     14 O         140.1901  136.4220  153.8034 O.3     1  UNL1       -0.3548
     15 C         141.1112  136.4585  154.9869 C.3     1  UNL1        0.1434
     16 C         140.5211  137.3885  156.0051 C.3     1  UNL1        0.0460
     17 C         141.8210  136.7693  156.4254 C.3     1  UNL1        0.0254
     18 C         142.4128  137.1025  157.7628 C.3     1  UNL1        0.0937
     19 N         141.7045  138.0550  158.6800 N.pl3   1  UNL1       -0.2794
     20 C         140.4046  138.6742  158.2598 C.3     1  UNL1        0.0937
     21 C         139.8129  138.3410  156.9223 C.3     1  UNL1        0.0254
     22 C         139.2352  137.9268  155.4511 C.3     1  UNL1        0.0807
     23 N         138.3155  138.8928  156.1373 N.3     1  UNL1       -0.3202
     24 H         138.6975  139.1351  157.0514 H       1  UNL1        0.1189
     25 H         137.3979  138.4632  156.2552 H       1  UNL1        0.1189
     26 S         144.0718  139.3878  164.0298 S.3     1  UNL1       -0.0785
     27 C         143.2956  140.2200  165.0070 C.ar    1  UNL1        0.0429
     28 C         142.7997  141.5782  164.6077 C.ar    1  UNL1        0.0280
     29 C         142.0235  142.4104  165.5850 C.ar    1  UNL1        0.0990
     30 N         141.7433  141.8844  166.9615 N.ar    1  UNL1       -0.2473
     31 C         142.2392  140.5262  167.3608 C.ar    1  UNL1        0.0696
     32 C         143.0154  139.6940  166.3836 C.ar    1  UNL1        0.0771
     33 CL        143.5113  138.3359  166.7829 Cl      1  UNL1       -0.0805
     34 C         141.9590  140.0003  168.7373 C.3     1  UNL1        0.0412
     35 C         140.9951  139.7366  169.8558 C.3     1  UNL1        0.0063
     36 C         142.4377  139.3530  170.0029 C.3     1  UNL1        0.0063
@<TRIPOS>BOND
     1    13    12    1
     2    13    14    1
     3    14    15    1
     4    15    16    1
     5    16    17    1
     6    17    18    1
     7    18    19    1
     8    19     1    1
     9     1     2   ar
    10     2     3   ar
    11     3     4    1
    12     3     5   ar
    13     5    26    1
    14    26    27    1
    15    27    28   ar
    16    28    29   ar
    17    29    30   ar
    18    30    31   ar
    19    31    34    1
    20    34    35    1
    21    35    36    1
    22    31    32   ar
    23    32    33    1
    24     5     6   ar
    25     6     7    2
    26     6     8   ar
    27     8     9    1
    28    19    20    1
    29    20    21    1
    30    16    22    1
    31    22    23    1
    32    22    13    1
    33    21    16    1
    34     8     1   ar
    35    32    27   ar
    36    36    34    1
    37     4    10    1
    38     4    11    1
    39    23    24    1
    40    23    25    1
