@<TRIPOS>MOLECULE
*****
 34 38 0 0 0
SMALL
GASTEIGER

@<TRIPOS>ATOM
      1 C         145.9673  141.7463  163.5866 C.3     1  UNL1        0.0537
      2 C         144.7732  141.8778  162.6883 C.ar    1  UNL1        0.0782
      3 N         144.5077  143.0043  161.7341 N.ar    1  UNL1       -0.1697
      4 N         143.2053  142.7286  161.0427 N.ar    1  UNL1       -0.2267
      5 C         142.6661  141.4319  161.5696 C.ar    1  UNL1        0.0987
      6 C         143.6351  140.9060  162.5866 C.ar    1  UNL1        0.0283
      7 C         142.5562  143.5973  160.0063 C.ar    1  UNL1        0.1078
      8 C         143.0020  143.5193  158.5762 C.ar    1  UNL1        0.0766
      9 CL        144.0970  142.5726  158.1824 Cl      1  UNL1       -0.0806
     10 C         142.3530  144.3880  157.5397 C.ar    1  UNL1        0.0130
     11 C         141.2580  145.3347  157.9335 C.ar    1  UNL1        0.0023
     12 C         140.8122  145.4127  159.3636 C.ar    1  UNL1        0.0174
     13 C         141.4613  144.5440  160.4000 C.ar    1  UNL1        0.0829
     14 N         141.0156  144.6220  161.8301 N.pl3   1  UNL1       -0.2172
     15 H         141.6699  144.8152  162.5398 H       1  UNL1        0.1734
     16 S         139.5728  144.4055  162.1788 S.O2    1  UNL1        0.0559
     17 C         138.1300  144.1891  162.5275 C.3     1  UNL1        0.1996
     18 O         139.6989  142.9589  161.8025 O.2     1  UNL1       -0.1544
     19 O         139.4467  145.8521  162.5550 O.2     1  UNL1       -0.1544
     20 C         143.4913  139.6321  163.3653 C.3     1  UNL1        0.1019
     21 N         143.1777  139.6805  164.8314 N.3     1  UNL1       -0.2687
     22 C         142.4081  140.8376  165.3959 C.3     1  UNL1        0.0751
     23 C         142.0946  140.8860  166.8620 C.3     1  UNL1        0.0488
     24 C         142.5505  139.7772  167.7634 C.3     1  UNL1        0.1143
     25 C         143.3201  138.6200  167.1989 C.3     1  UNL1        0.0488
     26 C         143.6336  138.5717  165.7329 C.3     1  UNL1        0.0751
     27 O         142.9387  138.7472  168.7825 O.3     1  UNL1       -0.3497
     28 C         142.4218  139.1975  170.1168 C.3     1  UNL1        0.1686
     29 C         141.7142  140.5058  169.9223 C.ar    1  UNL1        0.0055
     30 C         141.0077  141.4171  170.8816 C.ar    1  UNL1       -0.0021
     31 C         140.3808  142.6867  170.3866 C.ar    1  UNL1       -0.0003
     32 C         140.4604  143.0450  168.9321 C.ar    1  UNL1       -0.0003
     33 C         141.1669  142.1337  167.9728 C.ar    1  UNL1       -0.0023
     34 C         141.7938  140.8640  168.4679 C.ar    1  UNL1        0.0005
@<TRIPOS>BOND
     1     1     2    1
     2     2     3   ar
     3     3     4   ar
     4     4     7    1
     5     7     8   ar
     6     8     9    1
     7     8    10   ar
     8    10    11   ar
     9    11    12   ar
    10    12    13   ar
    11    13    14    1
    12    14    16    1
    13    16    17    1
    14    16    18    2
    15    16    19    2
    16     4     5   ar
    17     5     6   ar
    18     6    20    1
    19    20    21    1
    20    21    22    1
    21    22    23    1
    22    23    24    1
    23    24    25    1
    24    25    26    1
    25    24    27    1
    26    27    28    1
    27    28    29    1
    28    29    30   ar
    29    30    31   ar
    30    31    32   ar
    31    32    33   ar
    32    33    34   ar
    33     6     2   ar
    34    26    21    1
    35    34    29   ar
    36    13     7   ar
    37    34    24    1
    38    14    15    1
@<TRIPOS>MOLECULE
*****
 34 38 0 0 0
SMALL
GASTEIGER

@<TRIPOS>ATOM
      1 C         137.4125  143.0974  164.0126 C.3     1  UNL1        0.0537
      2 C         138.2482  142.8703  162.7879 C.ar    1  UNL1        0.0782
      3 N         138.5367  143.8808  161.7176 N.ar    1  UNL1       -0.1697
      4 N         139.4090  143.2278  160.6866 N.ar    1  UNL1       -0.2267
      5 C         139.6596  141.8138  161.1199 C.ar    1  UNL1        0.0987
      6 C         138.9422  141.5928  162.4185 C.ar    1  UNL1        0.0283
      7 C         139.9378  143.8752  159.4412 C.ar    1  UNL1        0.1078
      8 C         139.3509  143.5241  158.1062 C.ar    1  UNL1        0.0766
      9 CL        138.2351  142.5255  158.0166 Cl      1  UNL1       -0.0806
     10 C         139.8797  144.1715  156.8606 C.ar    1  UNL1        0.0130
     11 C         140.9955  145.1701  156.9502 C.ar    1  UNL1        0.0023
     12 C         141.5824  145.5212  158.2852 C.ar    1  UNL1        0.0174
     13 C         141.0536  144.8737  159.5307 C.ar    1  UNL1        0.0829
     14 N         141.6405  145.2248  160.8657 N.pl3   1  UNL1       -0.2172
     15 H         141.5362  146.1354  161.2252 H       1  UNL1        0.1734
     16 S         142.3863  144.1886  161.6530 S.O2    1  UNL1        0.0559
     17 C         143.1321  143.1522  162.4404 C.3     1  UNL1        0.1996
     18 O         143.1586  143.8105  160.4238 O.2     1  UNL1       -0.1544
     19 O         141.6141  144.5666  162.8821 O.2     1  UNL1       -0.1544
     20 C         138.9223  140.3181  163.2090 C.3     1  UNL1        0.1019
     21 N         139.3104  140.3280  164.6579 N.3     1  UNL1       -0.2687
     22 C         140.5459  141.0556  165.0985 C.3     1  UNL1        0.0751
     23 C         140.9340  141.0654  166.5473 C.3     1  UNL1        0.0488
     24 C         140.0865  140.3476  167.5556 C.3     1  UNL1        0.1143
     25 C         138.8510  139.6201  167.1151 C.3     1  UNL1        0.0488
     26 C         138.4630  139.6103  165.6662 C.3     1  UNL1        0.0751
     27 O         139.3417  139.6783  168.6725 O.3     1  UNL1       -0.3497
     28 C         140.0824  139.9455  169.9492 C.3     1  UNL1        0.1686
     29 C         141.2850  140.7800  169.6214 C.ar    1  UNL1        0.0055
     30 C         142.3781  141.3457  170.4788 C.ar    1  UNL1       -0.0021
     31 C         143.4737  142.1598  169.8570 C.ar    1  UNL1       -0.0003
     32 C         143.4763  142.4084  168.3777 C.ar    1  UNL1       -0.0003
     33 C         142.3832  141.8427  167.5203 C.ar    1  UNL1       -0.0023
     34 C         141.2876  141.0285  168.1422 C.ar    1  UNL1        0.0005
@<TRIPOS>BOND
     1     1     2    1
     2     2     3   ar
     3     3     4   ar
     4     4     7    1
     5     7     8   ar
     6     8     9    1
     7     8    10   ar
     8    10    11   ar
     9    11    12   ar
    10    12    13   ar
    11    13    14    1
    12    14    16    1
    13    16    17    1
    14    16    18    2
    15    16    19    2
    16     4     5   ar
    17     5     6   ar
    18     6    20    1
    19    20    21    1
    20    21    22    1
    21    22    23    1
    22    23    24    1
    23    24    25    1
    24    25    26    1
    25    24    27    1
    26    27    28    1
    27    28    29    1
    28    29    30   ar
    29    30    31   ar
    30    31    32   ar
    31    32    33   ar
    32    33    34   ar
    33     6     2   ar
    34    26    21    1
    35    34    29   ar
    36    13     7   ar
    37    34    24    1
    38    14    15    1
@<TRIPOS>MOLECULE
*****
 34 38 0 0 0
SMALL
GASTEIGER

@<TRIPOS>ATOM
      1 C         139.9597  139.2820  158.1990 C.3     1  UNL1        0.0537
      2 C         141.0417  138.9003  159.1652 C.ar    1  UNL1        0.0782
      3 N         141.0218  139.1310  160.6472 N.ar    1  UNL1       -0.1697
      4 N         142.3013  138.5942  161.2170 N.ar    1  UNL1       -0.2267
      5 C         143.1120  138.0318  160.0872 C.ar    1  UNL1        0.0987
      6 C         142.3335  138.2210  158.8191 C.ar    1  UNL1        0.0283
      7 C         142.7002  138.6160  162.6629 C.ar    1  UNL1        0.1078
      8 C         141.9097  137.8355  163.6709 C.ar    1  UNL1        0.0766
      9 CL        140.7203  137.0331  163.2330 Cl      1  UNL1       -0.0806
     10 C         142.3085  137.8572  165.1167 C.ar    1  UNL1        0.0130
     11 C         143.4979  138.6596  165.5546 C.ar    1  UNL1        0.0023
     12 C         144.2884  139.4401  164.5467 C.ar    1  UNL1        0.0174
     13 C         143.8895  139.4183  163.1008 C.ar    1  UNL1        0.0829
     14 N         144.6800  140.1988  162.0929 N.pl3   1  UNL1       -0.2172
     15 H         145.2035  139.7269  161.4055 H       1  UNL1        0.1734
     16 S         144.6728  141.6982  162.1322 S.O2    1  UNL1        0.0559
     17 C         144.6656  143.1978  162.1716 C.3     1  UNL1        0.1996
     18 O         145.9863  141.6856  162.8566 O.2     1  UNL1       -0.1544
     19 O         143.3594  141.7109  161.4078 O.2     1  UNL1       -0.1544
     20 C         142.7701  137.8041  157.4460 C.3     1  UNL1        0.1019
     21 N         142.5921  136.3824  157.0017 N.3     1  UNL1       -0.2687
     22 C         143.4646  135.3037  157.5717 C.3     1  UNL1        0.0751
     23 C         143.2865  133.8821  157.1274 C.3     1  UNL1        0.0488
     24 C         142.2360  133.5393  156.1132 C.3     1  UNL1        0.1143
     25 C         141.3634  134.6181  155.5431 C.3     1  UNL1        0.0488
     26 C         141.5415  136.0396  155.9874 C.3     1  UNL1        0.0751
     27 O         141.2330  133.0475  155.1120 O.3     1  UNL1       -0.3497
     28 C         141.4068  131.5641  154.9721 C.3     1  UNL1        0.1686
     29 C         142.5172  131.1392  155.8868 C.ar    1  UNL1        0.0055
     30 C         143.1278  129.7984  156.1687 C.ar    1  UNL1       -0.0021
     31 C         144.2508  129.6784  157.1558 C.ar    1  UNL1       -0.0003
     32 C         144.7633  130.8991  157.8610 C.ar    1  UNL1       -0.0003
     33 C         144.1526  132.2398  157.5791 C.ar    1  UNL1       -0.0023
     34 C         143.0296  132.3599  156.5920 C.ar    1  UNL1        0.0005
@<TRIPOS>BOND
     1     1     2    1
     2     2     3   ar
     3     3     4   ar
     4     4     7    1
     5     7     8   ar
     6     8     9    1
     7     8    10   ar
     8    10    11   ar
     9    11    12   ar
    10    12    13   ar
    11    13    14    1
    12    14    16    1
    13    16    17    1
    14    16    18    2
    15    16    19    2
    16     4     5   ar
    17     5     6   ar
    18     6    20    1
    19    20    21    1
    20    21    22    1
    21    22    23    1
    22    23    24    1
    23    24    25    1
    24    25    26    1
    25    24    27    1
    26    27    28    1
    27    28    29    1
    28    29    30   ar
    29    30    31   ar
    30    31    32   ar
    31    32    33   ar
    32    33    34   ar
    33     6     2   ar
    34    26    21    1
    35    34    29   ar
    36    13     7   ar
    37    34    24    1
    38    14    15    1
@<TRIPOS>MOLECULE
*****
 34 38 0 0 0
SMALL
GASTEIGER

@<TRIPOS>ATOM
      1 C         145.6951  141.3293  163.6252 C.3     1  UNL1        0.0537
      2 C         144.6159  141.5056  162.5984 C.ar    1  UNL1        0.0782
      3 N         144.5567  142.5844  161.5579 N.ar    1  UNL1       -0.1697
      4 N         143.3107  142.3796  160.7483 N.ar    1  UNL1       -0.2267
      5 C         142.5999  141.1742  161.2884 C.ar    1  UNL1        0.0987
      6 C         143.4065  140.6340  162.4318 C.ar    1  UNL1        0.0283
      7 C         142.8554  143.2307  159.6001 C.ar    1  UNL1        0.1078
      8 C         141.9141  144.3735  159.8406 C.ar    1  UNL1        0.0766
      9 CL        141.4279  144.6652  161.2294 Cl      1  UNL1       -0.0806
     10 C         141.4588  145.2247  158.6925 C.ar    1  UNL1        0.0130
     11 C         141.9449  144.9330  157.3037 C.ar    1  UNL1        0.0023
     12 C         142.8863  143.7902  157.0631 C.ar    1  UNL1        0.0174
     13 C         143.3415  142.9391  158.2113 C.ar    1  UNL1        0.0829
     14 N         144.2829  141.7963  157.9708 N.pl3   1  UNL1       -0.2172
     15 H         144.1397  140.9360  158.4276 H       1  UNL1        0.1734
     16 S         145.4424  141.9642  157.0342 S.O2    1  UNL1        0.0559
     17 C         146.6021  142.1322  156.0976 C.3     1  UNL1        0.1996
     18 O         144.7555  141.0902  156.0270 O.2     1  UNL1       -0.1544
     19 O         146.1293  142.8382  158.0413 O.2     1  UNL1       -0.1544
     20 C         143.0640  139.4332  163.2628 C.3     1  UNL1        0.1019
     21 N         142.8602  139.5779  164.7419 N.3     1  UNL1       -0.2687
     22 C         142.1226  140.7659  165.2846 C.3     1  UNL1        0.0751
     23 C         141.9189  140.9106  166.7636 C.3     1  UNL1        0.0488
     24 C         142.4526  139.8673  167.6999 C.3     1  UNL1        0.1143
     25 C         143.1902  138.6793  167.1571 C.3     1  UNL1        0.0488
     26 C         143.3940  138.5346  165.6781 C.3     1  UNL1        0.0751
     27 O         142.9267  138.9101  168.7530 O.3     1  UNL1       -0.3497
     28 C         142.5061  139.4459  170.0896 C.3     1  UNL1        0.1686
     29 C         141.7720  140.7342  169.8623 C.ar    1  UNL1        0.0055
     30 C         141.1294  141.7038  170.8094 C.ar    1  UNL1       -0.0021
     31 C         140.4539  142.9337  170.2797 C.ar    1  UNL1       -0.0003
     32 C         140.4208  143.1942  168.8028 C.ar    1  UNL1       -0.0003
     33 C         141.0634  142.2247  167.8557 C.ar    1  UNL1       -0.0023
     34 C         141.7390  140.9946  168.3855 C.ar    1  UNL1        0.0005
@<TRIPOS>BOND
     1     1     2    1
     2     2     3   ar
     3     3     4   ar
     4     4     7    1
     5     7     8   ar
     6     8     9    1
     7     8    10   ar
     8    10    11   ar
     9    11    12   ar
    10    12    13   ar
    11    13    14    1
    12    14    16    1
    13    16    17    1
    14    16    18    2
    15    16    19    2
    16     4     5   ar
    17     5     6   ar
    18     6    20    1
    19    20    21    1
    20    21    22    1
    21    22    23    1
    22    23    24    1
    23    24    25    1
    24    25    26    1
    25    24    27    1
    26    27    28    1
    27    28    29    1
    28    29    30   ar
    29    30    31   ar
    30    31    32   ar
    31    32    33   ar
    32    33    34   ar
    33     6     2   ar
    34    26    21    1
    35    34    29   ar
    36    13     7   ar
    37    34    24    1
    38    14    15    1
@<TRIPOS>MOLECULE
*****
 34 38 0 0 0
SMALL
GASTEIGER

@<TRIPOS>ATOM
      1 C         141.6403  137.6560  162.3459 C.3     1  UNL1        0.0537
      2 C         140.9668  138.9541  162.0122 C.ar    1  UNL1        0.0782
      3 N         141.4003  139.9260  160.9552 N.ar    1  UNL1       -0.1697
      4 N         140.4429  141.0807  160.9666 N.ar    1  UNL1       -0.2267
      5 C         139.4177  140.8224  162.0307 C.ar    1  UNL1        0.0987
      6 C         139.7415  139.5080  162.6769 C.ar    1  UNL1        0.0283
      7 C         140.5006  142.2828  160.0711 C.ar    1  UNL1        0.1078
      8 C         139.5311  142.4186  158.9346 C.ar    1  UNL1        0.0766
      9 CL        138.5039  141.3523  158.6935 Cl      1  UNL1       -0.0806
     10 C         139.5887  143.6206  158.0391 C.ar    1  UNL1        0.0130
     11 C         140.6159  144.6868  158.2802 C.ar    1  UNL1        0.0023
     12 C         141.5854  144.5510  159.4167 C.ar    1  UNL1        0.0174
     13 C         141.5277  143.3490  160.3122 C.ar    1  UNL1        0.0829
     14 N         142.4972  143.2132  161.4487 N.pl3   1  UNL1       -0.2172
     15 H         143.1342  142.4627  161.4654 H       1  UNL1        0.1734
     16 S         142.4961  144.2208  162.5598 S.O2    1  UNL1        0.0559
     17 C         142.4951  145.2285  163.6710 C.3     1  UNL1        0.1996
     18 O         141.0803  143.8529  162.8921 O.2     1  UNL1       -0.1544
     19 O         143.9118  144.5887  162.2276 O.2     1  UNL1       -0.1544
     20 C         138.9746  138.8612  163.7920 C.3     1  UNL1        0.1019
     21 N         139.2248  139.2739  165.2123 N.3     1  UNL1       -0.2687
     22 C         140.4405  140.0828  165.5553 C.3     1  UNL1        0.0751
     23 C         140.6906  140.4955  166.9755 C.3     1  UNL1        0.0488
     24 C         139.7249  140.0992  168.0528 C.3     1  UNL1        0.1143
     25 C         138.5092  139.2904  167.7098 C.3     1  UNL1        0.0488
     26 C         138.2591  138.8777  166.2896 C.3     1  UNL1        0.0751
     27 O         138.8530  139.7789  169.2306 O.3     1  UNL1       -0.3497
     28 C         139.4801  140.3864  170.4504 C.3     1  UNL1        0.1686
     29 C         140.7395  141.0822  170.0264 C.ar    1  UNL1        0.0055
     30 C         141.7681  141.8545  170.7982 C.ar    1  UNL1       -0.0021
     31 C         142.9480  142.4492  170.0882 C.ar    1  UNL1       -0.0003
     32 C         143.0993  142.2718  168.6064 C.ar    1  UNL1       -0.0003
     33 C         142.0708  141.4995  167.8347 C.ar    1  UNL1       -0.0023
     34 C         140.8909  140.9047  168.5447 C.ar    1  UNL1        0.0005
@<TRIPOS>BOND
     1     1     2    1
     2     2     3   ar
     3     3     4   ar
     4     4     7    1
     5     7     8   ar
     6     8     9    1
     7     8    10   ar
     8    10    11   ar
     9    11    12   ar
    10    12    13   ar
    11    13    14    1
    12    14    16    1
    13    16    17    1
    14    16    18    2
    15    16    19    2
    16     4     5   ar
    17     5     6   ar
    18     6    20    1
    19    20    21    1
    20    21    22    1
    21    22    23    1
    22    23    24    1
    23    24    25    1
    24    25    26    1
    25    24    27    1
    26    27    28    1
    27    28    29    1
    28    29    30   ar
    29    30    31   ar
    30    31    32   ar
    31    32    33   ar
    32    33    34   ar
    33     6     2   ar
    34    26    21    1
    35    34    29   ar
    36    13     7   ar
    37    34    24    1
    38    14    15    1
@<TRIPOS>MOLECULE
*****
 34 38 0 0 0
SMALL
GASTEIGER

@<TRIPOS>ATOM
      1 C         139.3632  139.5302  158.6198 C.3     1  UNL1        0.0537
      2 C         140.7877  139.5466  159.0892 C.ar    1  UNL1        0.0782
      3 N         141.2638  139.9712  160.4467 N.ar    1  UNL1       -0.1697
      4 N         142.7567  139.8283  160.4799 N.ar    1  UNL1       -0.2267
      5 C         143.2032  139.3154  159.1429 C.ar    1  UNL1        0.0987
      6 C         141.9863  139.1413  158.2834 C.ar    1  UNL1        0.0283
      7 C         143.6468  140.1431  161.6456 C.ar    1  UNL1        0.1078
      8 C         144.4142  141.4315  161.6768 C.ar    1  UNL1        0.0766
      9 CL        144.2916  142.4053  160.5424 Cl      1  UNL1       -0.0806
     10 C         145.3043  141.7463  162.8424 C.ar    1  UNL1        0.0130
     11 C         145.4270  140.7726  163.9769 C.ar    1  UNL1        0.0023
     12 C         144.6596  139.4842  163.9456 C.ar    1  UNL1        0.0174
     13 C         143.7695  139.1694  162.7800 C.ar    1  UNL1        0.0829
     14 N         143.0020  137.8810  162.7487 N.pl3   1  UNL1       -0.2172
     15 H         143.3956  137.0837  162.3259 H       1  UNL1        0.1734
     16 S         141.6350  137.8072  163.3617 S.O2    1  UNL1        0.0559
     17 C         140.2679  137.7335  163.9747 C.3     1  UNL1        0.1996
     18 O         142.1775  138.3748  164.6399 O.2     1  UNL1       -0.1544
     19 O         141.0925  137.2397  162.0836 O.2     1  UNL1       -0.1544
     20 C         141.9707  138.6485  156.8668 C.3     1  UNL1        0.1019
     21 N         142.0134  137.1759  156.5844 N.3     1  UNL1       -0.2687
     22 C         143.0484  136.3151  157.2460 C.3     1  UNL1        0.0751
     23 C         143.0910  134.8425  156.9637 C.3     1  UNL1        0.0488
     24 C         142.0986  134.2308  156.0198 C.3     1  UNL1        0.1143
     25 C         141.0636  135.0916  155.3582 C.3     1  UNL1        0.0488
     26 C         141.0210  136.5641  155.6405 C.3     1  UNL1        0.0751
     27 O         141.1767  133.4815  155.1039 O.3     1  UNL1       -0.3497
     28 C         141.5790  132.0365  155.1219 C.3     1  UNL1        0.1686
     29 C         142.7496  131.8927  156.0488 C.ar    1  UNL1        0.0055
     30 C         143.5645  130.7022  156.4593 C.ar    1  UNL1       -0.0021
     31 C         144.7005  130.8677  157.4246 C.ar    1  UNL1       -0.0003
     32 C         145.0217  132.2238  157.9796 C.ar    1  UNL1       -0.0003
     33 C         144.2068  133.4143  157.5692 C.ar    1  UNL1       -0.0023
     34 C         143.0707  133.2488  156.6038 C.ar    1  UNL1        0.0005
@<TRIPOS>BOND
     1     1     2    1
     2     2     3   ar
     3     3     4   ar
     4     4     7    1
     5     7     8   ar
     6     8     9    1
     7     8    10   ar
     8    10    11   ar
     9    11    12   ar
    10    12    13   ar
    11    13    14    1
    12    14    16    1
    13    16    17    1
    14    16    18    2
    15    16    19    2
    16     4     5   ar
    17     5     6   ar
    18     6    20    1
    19    20    21    1
    20    21    22    1
    21    22    23    1
    22    23    24    1
    23    24    25    1
    24    25    26    1
    25    24    27    1
    26    27    28    1
    27    28    29    1
    28    29    30   ar
    29    30    31   ar
    30    31    32   ar
    31    32    33   ar
    32    33    34   ar
    33     6     2   ar
    34    26    21    1
    35    34    29   ar
    36    13     7   ar
    37    34    24    1
    38    14    15    1
@<TRIPOS>MOLECULE
*****
 34 38 0 0 0
SMALL
GASTEIGER

@<TRIPOS>ATOM
      1 C         139.6720  146.3020  161.7105 C.3     1  UNL1        0.0537
      2 C         140.2185  145.1182  160.9689 C.ar    1  UNL1        0.0782
      3 N         141.4436  145.1088  160.1035 N.ar    1  UNL1       -0.1697
      4 N         141.6181  143.7207  159.5623 N.ar    1  UNL1       -0.2267
      5 C         140.5008  142.8724  160.0931 C.ar    1  UNL1        0.0987
      6 C         139.6358  143.7360  160.9625 C.ar    1  UNL1        0.0283
      7 C         142.7170  143.2617  158.6503 C.ar    1  UNL1        0.1078
      8 C         142.5362  143.3329  157.1629 C.ar    1  UNL1        0.0766
      9 CL        141.2563  143.8631  156.5875 Cl      1  UNL1       -0.0806
     10 C         143.6350  142.8739  156.2508 C.ar    1  UNL1        0.0130
     11 C         144.9148  142.3436  156.8262 C.ar    1  UNL1        0.0023
     12 C         145.0957  142.2724  158.3136 C.ar    1  UNL1        0.0174
     13 C         143.9968  142.7315  159.2256 C.ar    1  UNL1        0.0829
     14 N         144.1777  142.6603  160.7129 N.pl3   1  UNL1       -0.2172
     15 H         144.2094  143.4880  161.2451 H       1  UNL1        0.1734
     16 S         144.3102  141.3281  161.3894 S.O2    1  UNL1        0.0559
     17 C         144.4428  139.9958  162.0659 C.3     1  UNL1        0.1996
     18 O         143.1303  140.8180  160.6161 O.2     1  UNL1       -0.1544
     19 O         145.4900  141.8381  162.1627 O.2     1  UNL1       -0.1544
     20 C         138.4043  143.2950  161.6965 C.3     1  UNL1        0.1019
     21 N         138.5288  142.4586  162.9355 N.3     1  UNL1       -0.2687
     22 C         139.3843  142.9283  164.0746 C.3     1  UNL1        0.0751
     23 C         139.5087  142.0920  165.3135 C.3     1  UNL1        0.0488
     24 C         138.7777  140.7860  165.4134 C.3     1  UNL1        0.1143
     25 C         137.9222  140.3163  164.2744 C.3     1  UNL1        0.0488
     26 C         137.7978  141.1526  163.0354 C.3     1  UNL1        0.0751
     27 O         138.1098  139.4650  165.6563 O.3     1  UNL1       -0.3497
     28 C         138.5113  138.9864  167.0201 C.3     1  UNL1        0.1686
     29 C         139.4273  140.0116  167.6201 C.ar    1  UNL1        0.0055
     30 C         140.1327  140.0761  168.9422 C.ar    1  UNL1       -0.0021
     31 C         141.0028  141.2527  169.2715 C.ar    1  UNL1       -0.0003
     32 C         141.1675  142.3649  168.2786 C.ar    1  UNL1       -0.0003
     33 C         140.4621  142.3004  166.9564 C.ar    1  UNL1       -0.0023
     34 C         139.5920  141.1238  166.6271 C.ar    1  UNL1        0.0005
@<TRIPOS>BOND
     1     1     2    1
     2     2     3   ar
     3     3     4   ar
     4     4     7    1
     5     7     8   ar
     6     8     9    1
     7     8    10   ar
     8    10    11   ar
     9    11    12   ar
    10    12    13   ar
    11    13    14    1
    12    14    16    1
    13    16    17    1
    14    16    18    2
    15    16    19    2
    16     4     5   ar
    17     5     6   ar
    18     6    20    1
    19    20    21    1
    20    21    22    1
    21    22    23    1
    22    23    24    1
    23    24    25    1
    24    25    26    1
    25    24    27    1
    26    27    28    1
    27    28    29    1
    28    29    30   ar
    29    30    31   ar
    30    31    32   ar
    31    32    33   ar
    32    33    34   ar
    33     6     2   ar
    34    26    21    1
    35    34    29   ar
    36    13     7   ar
    37    34    24    1
    38    14    15    1
@<TRIPOS>MOLECULE
*****
 34 38 0 0 0
SMALL
GASTEIGER

@<TRIPOS>ATOM
      1 C         138.3126  140.3374  156.9538 C.3     1  UNL1        0.0537
      2 C         138.8952  140.1750  158.3265 C.ar    1  UNL1        0.0782
      3 N         138.1646  140.3661  159.6225 N.ar    1  UNL1       -0.1697
      4 N         139.1285  140.1022  160.7412 N.ar    1  UNL1       -0.2267
      5 C         140.4547  139.7481  160.1365 C.ar    1  UNL1        0.0987
      6 C         140.3106  139.7931  158.6441 C.ar    1  UNL1        0.0283
      7 C         138.8202  140.1790  162.2071 C.ar    1  UNL1        0.1078
      8 C         138.9361  138.9527  163.0632 C.ar    1  UNL1        0.0766
      9 CL        139.3604  137.6495  162.4532 Cl      1  UNL1       -0.0806
     10 C         138.6279  139.0293  164.5292 C.ar    1  UNL1        0.0130
     11 C         138.2036  140.3325  165.1391 C.ar    1  UNL1        0.0023
     12 C         138.0877  141.5588  164.2831 C.ar    1  UNL1        0.0174
     13 C         138.3960  141.4820  162.8171 C.ar    1  UNL1        0.0829
     14 N         138.2800  142.7083  161.9611 N.pl3   1  UNL1       -0.2172
     15 H         137.7389  142.6854  161.1390 H       1  UNL1        0.1734
     16 S         138.9886  143.9695  162.3577 S.O2    1  UNL1        0.0559
     17 C         139.6971  145.2308  162.7543 C.3     1  UNL1        0.1996
     18 O         140.3097  143.3122  162.0877 O.2     1  UNL1       -0.1544
     19 O         137.6676  144.6267  162.6277 O.2     1  UNL1       -0.1544
     20 C         141.3919  139.5066  157.6449 C.3     1  UNL1        0.1019
     21 N         141.5303  138.1308  157.0633 N.3     1  UNL1       -0.2687
     22 C         142.5204  137.1663  157.6458 C.3     1  UNL1        0.0751
     23 C         142.6587  135.7907  157.0642 C.3     1  UNL1        0.0488
     24 C         141.8069  135.3794  155.9001 C.3     1  UNL1        0.1143
     25 C         140.8167  136.3438  155.3175 C.3     1  UNL1        0.0488
     26 C         140.6784  137.7195  155.8991 C.3     1  UNL1        0.0751
     27 O         141.0278  134.8292  154.7423 O.3     1  UNL1       -0.3497
     28 C         141.4880  133.4220  154.5008 C.3     1  UNL1        0.1686
     29 C         142.5515  133.1026  155.5093 C.ar    1  UNL1        0.0055
     30 C         143.3660  131.8666  155.7520 C.ar    1  UNL1       -0.0021
     31 C         144.3774  131.8402  156.8592 C.ar    1  UNL1       -0.0003
     32 C         144.5745  133.0499  157.7241 C.ar    1  UNL1       -0.0003
     33 C         143.7601  134.2859  157.4814 C.ar    1  UNL1       -0.0023
     34 C         142.7486  134.3123  156.3741 C.ar    1  UNL1        0.0005
@<TRIPOS>BOND
     1     1     2    1
     2     2     3   ar
     3     3     4   ar
     4     4     7    1
     5     7     8   ar
     6     8     9    1
     7     8    10   ar
     8    10    11   ar
     9    11    12   ar
    10    12    13   ar
    11    13    14    1
    12    14    16    1
    13    16    17    1
    14    16    18    2
    15    16    19    2
    16     4     5   ar
    17     5     6   ar
    18     6    20    1
    19    20    21    1
    20    21    22    1
    21    22    23    1
    22    23    24    1
    23    24    25    1
    24    25    26    1
    25    24    27    1
    26    27    28    1
    27    28    29    1
    28    29    30   ar
    29    30    31   ar
    30    31    32   ar
    31    32    33   ar
    32    33    34   ar
    33     6     2   ar
    34    26    21    1
    35    34    29   ar
    36    13     7   ar
    37    34    24    1
    38    14    15    1
@<TRIPOS>MOLECULE
*****
 34 38 0 0 0
SMALL
GASTEIGER

@<TRIPOS>ATOM
      1 C         139.9227  146.2050  161.8085 C.3     1  UNL1        0.0537
      2 C         140.3816  145.0609  160.9539 C.ar    1  UNL1        0.0782
      3 N         141.5874  145.0550  160.0617 N.ar    1  UNL1       -0.1697
      4 N         141.6662  143.7122  159.3978 N.ar    1  UNL1       -0.2267
      5 C         140.5092  142.8882  159.8798 C.ar    1  UNL1        0.0987
      6 C         139.7152  143.7217  160.8415 C.ar    1  UNL1        0.0283
      7 C         142.7176  143.2709  158.4232 C.ar    1  UNL1        0.1078
      8 C         144.0341  142.7541  158.9229 C.ar    1  UNL1        0.0766
      9 CL        144.2992  142.6785  160.3974 Cl      1  UNL1       -0.0806
     10 C         145.0854  142.3127  157.9483 C.ar    1  UNL1        0.0130
     11 C         144.8202  142.3883  156.4738 C.ar    1  UNL1        0.0023
     12 C         143.5038  142.9051  155.9741 C.ar    1  UNL1        0.0174
     13 C         142.4524  143.3464  156.9487 C.ar    1  UNL1        0.0829
     14 N         141.1359  143.8632  156.4490 N.pl3   1  UNL1       -0.2172
     15 H         140.2956  143.4726  156.7813 H       1  UNL1        0.1734
     16 S         141.0999  144.9751  155.4429 S.O2    1  UNL1        0.0559
     17 C         141.0639  146.0872  154.4368 C.3     1  UNL1        0.1996
     18 O         140.5453  144.0302  154.4183 O.2     1  UNL1       -0.1544
     19 O         141.6544  145.9201  156.4674 O.2     1  UNL1       -0.1544
     20 C         138.4731  143.2916  161.5639 C.3     1  UNL1        0.1019
     21 N         138.5787  142.4586  162.8069 N.3     1  UNL1       -0.2687
     22 C         139.4153  142.9323  163.9583 C.3     1  UNL1        0.0751
     23 C         139.5209  142.0994  165.2013 C.3     1  UNL1        0.0488
     24 C         138.7900  140.7928  165.2929 C.3     1  UNL1        0.1143
     25 C         137.9534  140.3190  164.1415 C.3     1  UNL1        0.0488
     26 C         137.8478  141.1520  162.8985 C.3     1  UNL1        0.0751
     27 O         138.1199  139.4716  165.5285 O.3     1  UNL1       -0.3497
     28 C         138.5000  138.9970  166.8998 C.3     1  UNL1        0.1686
     29 C         139.4051  140.0249  167.5117 C.ar    1  UNL1        0.0055
     30 C         140.0891  140.0938  168.8448 C.ar    1  UNL1       -0.0021
     31 C         140.9524  141.2723  169.1849 C.ar    1  UNL1       -0.0003
     32 C         141.1316  142.3822  168.1918 C.ar    1  UNL1       -0.0003
     33 C         140.4475  142.3133  166.8586 C.ar    1  UNL1       -0.0023
     34 C         139.5842  141.1347  166.5186 C.ar    1  UNL1        0.0005
@<TRIPOS>BOND
     1     1     2    1
     2     2     3   ar
     3     3     4   ar
     4     4     7    1
     5     7     8   ar
     6     8     9    1
     7     8    10   ar
     8    10    11   ar
     9    11    12   ar
    10    12    13   ar
    11    13    14    1
    12    14    16    1
    13    16    17    1
    14    16    18    2
    15    16    19    2
    16     4     5   ar
    17     5     6   ar
    18     6    20    1
    19    20    21    1
    20    21    22    1
    21    22    23    1
    22    23    24    1
    23    24    25    1
    24    25    26    1
    25    24    27    1
    26    27    28    1
    27    28    29    1
    28    29    30   ar
    29    30    31   ar
    30    31    32   ar
    31    32    33   ar
    32    33    34   ar
    33     6     2   ar
    34    26    21    1
    35    34    29   ar
    36    13     7   ar
    37    34    24    1
    38    14    15    1
