@<TRIPOS>MOLECULE
*****
 37 40 0 0 0
SMALL
GASTEIGER

@<TRIPOS>ATOM
      1 C         143.0241  143.3229  161.8887 C.ar    1  UNL1        0.0008
      2 C         143.9255  144.0317  162.8556 C.ar    1  UNL1       -0.0024
      3 C         143.3742  145.1059  163.7456 C.ar    1  UNL1        0.0028
      4 C         141.9214  145.4713  163.6687 C.ar    1  UNL1        0.0369
      5 C         141.0199  144.7625  162.7017 C.ar    1  UNL1        0.1389
      6 C         141.5713  143.6883  161.8117 C.ar    1  UNL1        0.0343
      7 C         143.5755  142.2487  160.9987 C.3     1  UNL1        0.1239
      8 C         142.0980  140.1140  160.8984 C.2     1  UNL1        0.4100
      9 O         141.0634  140.8668  160.1155 O.2     1  UNL1       -0.2258
     10 N         143.3540  140.8049  161.3400 N.am    1  UNL1       -0.2363
     11 O         141.8765  138.6702  161.2397 O.3     1  UNL1       -0.4101
     12 C         138.3386  137.1869  165.8529 C.3     1  UNL1        0.0310
     13 C         139.2230  137.5577  164.6997 C.ar    1  UNL1       -0.0217
     14 C         140.6858  137.8022  164.9246 C.ar    1  UNL1       -0.0011
     15 C         141.5703  138.1731  163.7713 C.ar    1  UNL1        0.0373
     16 C         140.9920  138.2994  162.3930 C.ar    1  UNL1        0.1500
     17 C         139.5293  138.0549  162.1680 C.ar    1  UNL1        0.0373
     18 C         138.6448  137.6840  163.3214 C.ar    1  UNL1       -0.0011
     19 C         144.3886  140.0521  162.1229 C.3     1  UNL1        0.1388
     20 C         145.0594  140.7008  163.2972 C.2     1  UNL1        0.0706
     21 O         146.2476  141.5914  163.0844 O.co2   1  UNL1       -0.5474
     22 O         144.5422  140.4591  164.6843 O.co2   1  UNL1       -0.5474
     23 O         139.5672  145.1278  162.6247 O.3     1  UNL1       -0.4689
     24 C         138.6040  144.5914  163.6419 C.3     1  UNL1        0.2537
     25 C         138.8723  143.2742  164.3073 C.ar    1  UNL1        0.1359
     26 N         139.7389  143.0552  165.5120 N.ar    1  UNL1       -0.2093
     27 C         139.7234  141.5903  165.8342 C.ar    1  UNL1        0.2290
     28 O         138.8472  140.9038  164.8286 O.2     1  UNL1       -0.4391
     29 C         138.3212  141.9445  163.8850 C.ar    1  UNL1        0.1421
     30 C         137.4050  141.6987  162.7230 C.3     1  UNL1        0.0740
     31 C         140.4554  140.9282  166.9635 C.ar    1  UNL1        0.0535
     32 C         139.7089  140.4981  168.1914 C.ar    1  UNL1        0.0043
     33 C         140.4409  139.8359  169.3208 C.ar    1  UNL1       -0.0041
     34 C         141.9196  139.6039  169.2224 C.ar    1  UNL1       -0.0218
     35 C         142.6517  138.9417  170.3518 C.3     1  UNL1        0.0310
     36 C         142.6662  140.0340  167.9945 C.ar    1  UNL1       -0.0041
     37 C         141.9341  140.6962  166.8651 C.ar    1  UNL1        0.0043
@<TRIPOS>UNITY_ATOM_ATTR
21 1
charge -1
@<TRIPOS>BOND
     1    12    13    1
     2    13    14   ar
     3    14    15   ar
     4    15    16   ar
     5    16    11    1
     6    11     8    1
     7     8     9    2
     8     8    10   am
     9    10    19    1
    10    19    20    1
    11    20    21   ar
    12    20    22   ar
    13    10     7    1
    14     7     1    1
    15     1     2   ar
    16     2     3   ar
    17     3     4   ar
    18     4     5   ar
    19     5    23    1
    20    23    24    1
    21    24    25    1
    22    25    26   ar
    23    26    27   ar
    24    27    31    1
    25    31    32   ar
    26    32    33   ar
    27    33    34   ar
    28    34    35    1
    29    34    36   ar
    30    36    37   ar
    31    27    28   ar
    32    28    29   ar
    33    29    30    1
    34     5     6   ar
    35    16    17   ar
    36    17    18   ar
    37    18    13   ar
    38     6     1   ar
    39    29    25   ar
    40    37    31   ar
@<TRIPOS>MOLECULE
*****
 37 40 0 0 0
SMALL
GASTEIGER

@<TRIPOS>ATOM
      1 C         141.2006  144.8712  162.3925 C.ar    1  UNL1        0.0008
      2 C         141.8827  145.6736  163.4605 C.ar    1  UNL1       -0.0024
      3 C         143.3331  145.4397  163.7632 C.ar    1  UNL1        0.0028
      4 C         144.1014  144.4033  162.9979 C.ar    1  UNL1        0.0369
      5 C         143.4192  143.6008  161.9298 C.ar    1  UNL1        0.1389
      6 C         141.9688  143.8348  161.6271 C.ar    1  UNL1        0.0343
      7 C         139.7502  145.1051  162.0898 C.3     1  UNL1        0.1239
      8 C         138.4247  142.8888  161.8045 C.2     1  UNL1        0.4100
      9 O         139.1686  142.6076  160.5327 O.2     1  UNL1       -0.2258
     10 N         138.7155  144.1375  162.5831 N.am    1  UNL1       -0.2363
     11 O         137.3901  141.9212  162.2978 O.3     1  UNL1       -0.4101
     12 C         139.0480  137.1447  165.5282 C.3     1  UNL1        0.0310
     13 C         138.6335  138.3388  164.7207 C.ar    1  UNL1       -0.0217
     14 C         138.3154  139.6343  165.4065 C.ar    1  UNL1       -0.0011
     15 C         137.9009  140.8285  164.5989 C.ar    1  UNL1        0.0373
     16 C         137.8046  140.7271  163.1054 C.ar    1  UNL1        0.1500
     17 C         138.1227  139.4316  162.4196 C.ar    1  UNL1        0.0373
     18 C         138.5372  138.2374  163.2272 C.ar    1  UNL1       -0.0011
     19 C         137.9717  144.4187  163.8550 C.3     1  UNL1        0.1388
     20 C         138.7152  144.5080  165.1546 C.2     1  UNL1        0.0706
     21 O         139.8958  143.6175  165.4060 O.co2   1  UNL1       -0.5474
     22 O         138.2781  145.4878  166.2030 O.co2   1  UNL1       -0.5474
     23 O         144.1875  142.5645  161.1645 O.3     1  UNL1       -0.4689
     24 C         144.3072  141.1698  161.7033 C.3     1  UNL1        0.2537
     25 C         143.4778  140.7462  162.8791 C.ar    1  UNL1        0.1359
     26 N         143.6470  141.2177  164.2931 N.ar    1  UNL1       -0.2093
     27 C         142.6073  140.5397  165.1353 C.ar    1  UNL1        0.2290
     28 O         141.7955  139.6492  164.2419 O.2     1  UNL1       -0.4391
     29 C         142.3335  139.7769  162.8475 C.ar    1  UNL1        0.1421
     30 C         141.8178  139.0609  161.6345 C.3     1  UNL1        0.0740
     31 C         142.4134  140.7204  166.6116 C.ar    1  UNL1        0.0535
     32 C         142.9846  141.9237  167.3014 C.ar    1  UNL1        0.0043
     33 C         142.7908  142.1046  168.7778 C.ar    1  UNL1       -0.0041
     34 C         142.0256  141.0819  169.5645 C.ar    1  UNL1       -0.0218
     35 C         141.8317  141.2627  171.0409 C.3     1  UNL1        0.0310
     36 C         141.4544  139.8786  168.8748 C.ar    1  UNL1       -0.0041
     37 C         141.6482  139.6979  167.3983 C.ar    1  UNL1        0.0043
@<TRIPOS>UNITY_ATOM_ATTR
21 1
charge -1
@<TRIPOS>BOND
     1    12    13    1
     2    13    14   ar
     3    14    15   ar
     4    15    16   ar
     5    16    11    1
     6    11     8    1
     7     8     9    2
     8     8    10   am
     9    10    19    1
    10    19    20    1
    11    20    21   ar
    12    20    22   ar
    13    10     7    1
    14     7     1    1
    15     1     2   ar
    16     2     3   ar
    17     3     4   ar
    18     4     5   ar
    19     5    23    1
    20    23    24    1
    21    24    25    1
    22    25    26   ar
    23    26    27   ar
    24    27    31    1
    25    31    32   ar
    26    32    33   ar
    27    33    34   ar
    28    34    35    1
    29    34    36   ar
    30    36    37   ar
    31    27    28   ar
    32    28    29   ar
    33    29    30    1
    34     5     6   ar
    35    16    17   ar
    36    17    18   ar
    37    18    13   ar
    38     6     1   ar
    39    29    25   ar
    40    37    31   ar
@<TRIPOS>MOLECULE
*****
 37 40 0 0 0
SMALL
GASTEIGER

@<TRIPOS>ATOM
      1 C         143.3097  143.5218  161.6602 C.ar    1  UNL1        0.0008
      2 C         144.2231  143.9918  162.7533 C.ar    1  UNL1       -0.0024
      3 C         143.7391  144.9991  163.7538 C.ar    1  UNL1        0.0028
      4 C         142.3418  145.5364  163.6613 C.ar    1  UNL1        0.0369
      5 C         141.4283  145.0664  162.5682 C.ar    1  UNL1        0.1389
      6 C         141.9123  144.0591  161.5677 C.ar    1  UNL1        0.0343
      7 C         143.7937  142.5144  160.6597 C.3     1  UNL1        0.1239
      8 C         143.8423  140.1306  161.6917 C.2     1  UNL1        0.4100
      9 O         144.9236  140.5621  162.6375 O.2     1  UNL1       -0.2258
     10 N         143.2774  141.1068  160.7028 N.am    1  UNL1       -0.2363
     11 O         143.3260  138.7229  161.7347 O.3     1  UNL1       -0.4101
     12 C         138.7652  137.3104  165.3683 C.3     1  UNL1        0.0310
     13 C         139.9054  137.6635  164.4599 C.ar    1  UNL1       -0.0217
     14 C         141.2607  137.9513  165.0346 C.ar    1  UNL1       -0.0011
     15 C         142.4009  138.3045  164.1262 C.ar    1  UNL1        0.0373
     16 C         142.1858  138.3698  162.6431 C.ar    1  UNL1        0.1500
     17 C         140.8305  138.0820  162.0684 C.ar    1  UNL1        0.0373
     18 C         139.6902  137.7288  162.9769 C.ar    1  UNL1       -0.0011
     19 C         142.1961  140.6753  159.7569 C.3     1  UNL1        0.1388
     20 C         142.5336  139.8196  158.5721 C.2     1  UNL1        0.0706
     21 O         141.4382  139.1666  157.7822 O.co2   1  UNL1       -0.5474
     22 O         143.9664  139.6169  158.1771 O.co2   1  UNL1       -0.5474
     23 O         140.0309  145.6037  162.4757 O.3     1  UNL1       -0.4689
     24 C         138.8731  144.7643  162.9283 C.3     1  UNL1        0.2537
     25 C         139.1199  143.4510  163.6097 C.ar    1  UNL1        0.1359
     26 N         139.8491  143.2534  164.9057 N.ar    1  UNL1       -0.2093
     27 C         139.8608  141.7850  165.2118 C.ar    1  UNL1        0.2290
     28 O         139.1388  141.0750  164.1050 O.2     1  UNL1       -0.4391
     29 C         138.6810  142.1047  163.1149 C.ar    1  UNL1        0.1421
     30 C         137.9181  141.8354  161.8518 C.3     1  UNL1        0.0740
     31 C         140.4848  141.1399  166.4135 C.ar    1  UNL1        0.0535
     32 C         139.6207  140.4559  167.4311 C.ar    1  UNL1        0.0043
     33 C         140.2446  139.8107  168.6329 C.ar    1  UNL1       -0.0041
     34 C         141.7329  139.8495  168.8171 C.ar    1  UNL1       -0.0218
     35 C         142.3569  139.2043  170.0189 C.3     1  UNL1        0.0310
     36 C         142.5969  140.5335  167.7995 C.ar    1  UNL1       -0.0041
     37 C         141.9729  141.1787  166.5977 C.ar    1  UNL1        0.0043
@<TRIPOS>UNITY_ATOM_ATTR
21 1
charge -1
@<TRIPOS>BOND
     1    12    13    1
     2    13    14   ar
     3    14    15   ar
     4    15    16   ar
     5    16    11    1
     6    11     8    1
     7     8     9    2
     8     8    10   am
     9    10    19    1
    10    19    20    1
    11    20    21   ar
    12    20    22   ar
    13    10     7    1
    14     7     1    1
    15     1     2   ar
    16     2     3   ar
    17     3     4   ar
    18     4     5   ar
    19     5    23    1
    20    23    24    1
    21    24    25    1
    22    25    26   ar
    23    26    27   ar
    24    27    31    1
    25    31    32   ar
    26    32    33   ar
    27    33    34   ar
    28    34    35    1
    29    34    36   ar
    30    36    37   ar
    31    27    28   ar
    32    28    29   ar
    33    29    30    1
    34     5     6   ar
    35    16    17   ar
    36    17    18   ar
    37    18    13   ar
    38     6     1   ar
    39    29    25   ar
    40    37    31   ar
@<TRIPOS>MOLECULE
*****
 37 40 0 0 0
SMALL
GASTEIGER

@<TRIPOS>ATOM
      1 C         141.9822  141.7730  159.9397 C.ar    1  UNL1        0.0008
      2 C         142.1950  142.8113  158.8783 C.ar    1  UNL1       -0.0024
      3 C         141.0635  143.7057  158.4665 C.ar    1  UNL1        0.0028
      4 C         139.7191  143.5619  159.1161 C.ar    1  UNL1        0.0369
      5 C         139.5063  142.5235  160.1776 C.ar    1  UNL1        0.1389
      6 C         140.6378  141.6291  160.5893 C.ar    1  UNL1        0.0343
      7 C         143.1137  140.8785  160.3514 C.3     1  UNL1        0.1239
      8 C         142.6163  138.8128  161.8466 C.2     1  UNL1        0.4100
      9 O         142.1460  138.0537  160.6413 O.2     1  UNL1       -0.2258
     10 N         143.1002  140.2252  161.7016 N.am    1  UNL1       -0.2363
     11 O         142.6028  138.1595  163.1967 O.3     1  UNL1       -0.4101
     12 C         137.8198  138.7553  166.7698 C.3     1  UNL1        0.0310
     13 C         139.0155  138.6063  165.8766 C.ar    1  UNL1       -0.0217
     14 C         140.2847  139.3402  166.1938 C.ar    1  UNL1       -0.0011
     15 C         141.4805  139.1912  165.3005 C.ar    1  UNL1        0.0373
     16 C         141.4071  138.3084  164.0900 C.ar    1  UNL1        0.1500
     17 C         140.1379  137.5746  163.7728 C.ar    1  UNL1        0.0373
     18 C         138.9421  137.7235  164.6661 C.ar    1  UNL1       -0.0011
     19 C         143.5705  140.9843  162.9068 C.3     1  UNL1        0.1388
     20 C         144.9605  140.7744  163.4301 C.2     1  UNL1        0.0706
     21 O         146.0851  141.6369  162.9387 O.co2   1  UNL1       -0.5474
     22 O         145.2260  139.7019  164.4446 O.co2   1  UNL1       -0.5474
     23 O         138.1619  142.3797  160.8272 O.3     1  UNL1       -0.4689
     24 C         137.8284  143.1861  162.0472 C.3     1  UNL1        0.2537
     25 C         138.9031  143.5313  163.0350 C.ar    1  UNL1        0.1359
     26 N         139.3294  142.6925  164.2032 N.ar    1  UNL1       -0.2093
     27 C         140.4300  143.4187  164.9183 C.ar    1  UNL1        0.2290
     28 O         140.6840  144.7064  164.1920 O.2     1  UNL1       -0.4391
     29 C         139.7402  144.7760  163.0280 C.ar    1  UNL1        0.1421
     30 C         139.6496  145.8939  162.0321 C.3     1  UNL1        0.0740
     31 C         141.1502  142.9411  166.1442 C.ar    1  UNL1        0.0535
     32 C         142.6140  142.6204  166.0770 C.ar    1  UNL1        0.0043
     33 C         143.3343  142.1428  167.3030 C.ar    1  UNL1       -0.0041
     34 C         142.5907  141.9859  168.5964 C.ar    1  UNL1       -0.0218
     35 C         143.3109  141.5084  169.8224 C.3     1  UNL1        0.0310
     36 C         141.1269  142.3067  168.6636 C.ar    1  UNL1       -0.0041
     37 C         140.4067  142.7842  167.4375 C.ar    1  UNL1        0.0043
@<TRIPOS>UNITY_ATOM_ATTR
21 1
charge -1
@<TRIPOS>BOND
     1    12    13    1
     2    13    14   ar
     3    14    15   ar
     4    15    16   ar
     5    16    11    1
     6    11     8    1
     7     8     9    2
     8     8    10   am
     9    10    19    1
    10    19    20    1
    11    20    21   ar
    12    20    22   ar
    13    10     7    1
    14     7     1    1
    15     1     2   ar
    16     2     3   ar
    17     3     4   ar
    18     4     5   ar
    19     5    23    1
    20    23    24    1
    21    24    25    1
    22    25    26   ar
    23    26    27   ar
    24    27    31    1
    25    31    32   ar
    26    32    33   ar
    27    33    34   ar
    28    34    35    1
    29    34    36   ar
    30    36    37   ar
    31    27    28   ar
    32    28    29   ar
    33    29    30    1
    34     5     6   ar
    35    16    17   ar
    36    17    18   ar
    37    18    13   ar
    38     6     1   ar
    39    29    25   ar
    40    37    31   ar
@<TRIPOS>MOLECULE
*****
 37 40 0 0 0
SMALL
GASTEIGER

@<TRIPOS>ATOM
      1 C         139.6799  143.6868  159.2595 C.ar    1  UNL1        0.0008
      2 C         139.7037  143.3808  157.7913 C.ar    1  UNL1       -0.0024
      3 C         139.1498  142.0812  157.2870 C.ar    1  UNL1        0.0028
      4 C         138.5721  141.0877  158.2509 C.ar    1  UNL1        0.0369
      5 C         138.5483  141.3938  159.7192 C.ar    1  UNL1        0.1389
      6 C         139.1022  142.6933  160.2235 C.ar    1  UNL1        0.0343
      7 C         140.2338  144.9864  159.7638 C.3     1  UNL1        0.1239
      8 C         142.2267  144.4168  161.3303 C.2     1  UNL1        0.4100
      9 O         142.9180  143.7183  160.1970 O.2     1  UNL1       -0.2258
     10 N         140.8847  145.0508  161.1137 N.am    1  UNL1       -0.2363
     11 O         142.8776  144.4812  162.6802 O.3     1  UNL1       -0.4101
     12 C         143.0602  139.5960  166.1588 C.3     1  UNL1        0.0310
     13 C         143.0146  140.8173  165.2892 C.ar    1  UNL1       -0.0217
     14 C         143.6091  142.1062  165.7744 C.ar    1  UNL1       -0.0011
     15 C         143.5634  143.3275  164.9047 C.ar    1  UNL1        0.0373
     16 C         142.9232  143.2599  163.5498 C.ar    1  UNL1        0.1500
     17 C         142.3287  141.9711  163.0647 C.ar    1  UNL1        0.0373
     18 C         142.3744  140.7497  163.9344 C.ar    1  UNL1       -0.0011
     19 C         140.1934  145.7493  162.2470 C.3     1  UNL1        0.1388
     20 C         139.2072  145.0046  163.0971 C.2     1  UNL1        0.0706
     21 O         139.6281  144.4564  164.4285 O.co2   1  UNL1       -0.5474
     22 O         137.8001  144.8081  162.6160 O.co2   1  UNL1       -0.5474
     23 O         137.9706  140.4003  160.6832 O.3     1  UNL1       -0.4689
     24 C         137.4864  140.8545  162.0282 C.3     1  UNL1        0.2537
     25 C         138.1970  140.4076  163.2713 C.ar    1  UNL1        0.1359
     26 N         138.4402  141.2399  164.4954 N.ar    1  UNL1       -0.2093
     27 C         139.1827  140.3968  165.4892 C.ar    1  UNL1        0.2290
     28 O         139.3984  139.0433  164.8795 O.2     1  UNL1       -0.4391
     29 C         138.7892  139.0501  163.5087 C.ar    1  UNL1        0.1421
     30 C         138.7747  137.9010  162.5446 C.3     1  UNL1        0.0740
     31 C         139.6308  140.8307  166.8533 C.ar    1  UNL1        0.0535
     32 C         140.2232  142.1948  167.0494 C.ar    1  UNL1        0.0043
     33 C         140.6714  142.6289  168.4135 C.ar    1  UNL1       -0.0041
     34 C         140.5271  141.6988  169.5815 C.ar    1  UNL1       -0.0218
     35 C         140.9753  142.1328  170.9457 C.3     1  UNL1        0.0310
     36 C         139.9347  140.3348  169.3854 C.ar    1  UNL1       -0.0041
     37 C         139.4866  139.9008  168.0213 C.ar    1  UNL1        0.0043
@<TRIPOS>UNITY_ATOM_ATTR
21 1
charge -1
@<TRIPOS>BOND
     1    12    13    1
     2    13    14   ar
     3    14    15   ar
     4    15    16   ar
     5    16    11    1
     6    11     8    1
     7     8     9    2
     8     8    10   am
     9    10    19    1
    10    19    20    1
    11    20    21   ar
    12    20    22   ar
    13    10     7    1
    14     7     1    1
    15     1     2   ar
    16     2     3   ar
    17     3     4   ar
    18     4     5   ar
    19     5    23    1
    20    23    24    1
    21    24    25    1
    22    25    26   ar
    23    26    27   ar
    24    27    31    1
    25    31    32   ar
    26    32    33   ar
    27    33    34   ar
    28    34    35    1
    29    34    36   ar
    30    36    37   ar
    31    27    28   ar
    32    28    29   ar
    33    29    30    1
    34     5     6   ar
    35    16    17   ar
    36    17    18   ar
    37    18    13   ar
    38     6     1   ar
    39    29    25   ar
    40    37    31   ar
@<TRIPOS>MOLECULE
*****
 37 40 0 0 0
SMALL
GASTEIGER

@<TRIPOS>ATOM
      1 C         140.9490  144.2708  160.7847 C.ar    1  UNL1        0.0008
      2 C         142.0728  144.1943  159.7943 C.ar    1  UNL1       -0.0024
      3 C         141.8917  143.4386  158.5112 C.ar    1  UNL1        0.0028
      4 C         140.5868  142.7594  158.2187 C.ar    1  UNL1        0.0369
      5 C         139.4628  142.8358  159.2092 C.ar    1  UNL1        0.1389
      6 C         139.6439  143.5915  160.4922 C.ar    1  UNL1        0.0343
      7 C         141.1301  145.0265  162.0677 C.3     1  UNL1        0.1239
      8 C         139.9906  144.3011  164.2870 C.2     1  UNL1        0.4100
      9 O         138.7523  145.0524  163.8968 O.2     1  UNL1       -0.2258
     10 N         141.1795  144.2882  163.3724 N.am    1  UNL1       -0.2363
     11 O         140.0400  143.5628  165.5918 O.3     1  UNL1       -0.4101
     12 C         138.3110  137.8236  165.8584 C.3     1  UNL1        0.0310
     13 C         138.7432  139.2583  165.7917 C.ar    1  UNL1       -0.0217
     14 C         139.6394  139.8218  166.8545 C.ar    1  UNL1       -0.0011
     15 C         140.0716  141.2566  166.7878 C.ar    1  UNL1        0.0373
     16 C         139.6077  142.1280  165.6584 C.ar    1  UNL1        0.1500
     17 C         138.7115  141.5645  164.5957 C.ar    1  UNL1        0.0373
     18 C         138.2793  140.1297  164.6624 C.ar    1  UNL1       -0.0011
     19 C         142.4178  143.5369  163.7627 C.3     1  UNL1        0.1388
     20 C         143.7435  144.2381  163.7887 C.2     1  UNL1        0.0706
     21 O         144.3422  144.7578  162.5153 O.co2   1  UNL1       -0.5474
     22 O         144.4706  144.4196  165.0881 O.co2   1  UNL1       -0.5474
     23 O         138.1578  142.1566  158.9166 O.3     1  UNL1       -0.4689
     24 C         138.0642  140.6602  158.9630 C.3     1  UNL1        0.2537
     25 C         139.1014  139.8664  159.7005 C.ar    1  UNL1        0.1359
     26 N         139.5126  140.0650  161.1294 N.ar    1  UNL1       -0.2093
     27 C         140.5748  139.0559  161.4506 C.ar    1  UNL1        0.2290
     28 O         140.8202  138.2335  160.2204 O.2     1  UNL1       -0.4391
     29 C         139.9096  138.7344  159.1387 C.ar    1  UNL1        0.1421
     30 C         139.8224  138.1976  157.7408 C.3     1  UNL1        0.0740
     31 C         141.2697  138.8970  162.7704 C.ar    1  UNL1        0.0535
     32 C         141.2126  137.5848  163.4949 C.ar    1  UNL1        0.0043
     33 C         141.9075  137.4259  164.8147 C.ar    1  UNL1       -0.0041
     34 C         142.6595  138.5792  165.4100 C.ar    1  UNL1       -0.0218
     35 C         143.3544  138.4203  166.7298 C.3     1  UNL1        0.0310
     36 C         142.7166  139.8914  164.6855 C.ar    1  UNL1       -0.0041
     37 C         142.0217  140.0503  163.3657 C.ar    1  UNL1        0.0043
@<TRIPOS>UNITY_ATOM_ATTR
21 1
charge -1
@<TRIPOS>BOND
     1    12    13    1
     2    13    14   ar
     3    14    15   ar
     4    15    16   ar
     5    16    11    1
     6    11     8    1
     7     8     9    2
     8     8    10   am
     9    10    19    1
    10    19    20    1
    11    20    21   ar
    12    20    22   ar
    13    10     7    1
    14     7     1    1
    15     1     2   ar
    16     2     3   ar
    17     3     4   ar
    18     4     5   ar
    19     5    23    1
    20    23    24    1
    21    24    25    1
    22    25    26   ar
    23    26    27   ar
    24    27    31    1
    25    31    32   ar
    26    32    33   ar
    27    33    34   ar
    28    34    35    1
    29    34    36   ar
    30    36    37   ar
    31    27    28   ar
    32    28    29   ar
    33    29    30    1
    34     5     6   ar
    35    16    17   ar
    36    17    18   ar
    37    18    13   ar
    38     6     1   ar
    39    29    25   ar
    40    37    31   ar
@<TRIPOS>MOLECULE
*****
 37 40 0 0 0
SMALL
GASTEIGER

@<TRIPOS>ATOM
      1 C         140.5418  142.5825  158.2937 C.ar    1  UNL1        0.0008
      2 C         141.7432  143.1340  157.5850 C.ar    1  UNL1       -0.0024
      3 C         142.2453  144.5078  157.9179 C.ar    1  UNL1        0.0028
      4 C         141.5460  145.3299  158.9595 C.ar    1  UNL1        0.0369
      5 C         140.3445  144.7784  159.6683 C.ar    1  UNL1        0.1389
      6 C         139.8424  143.4047  159.3354 C.ar    1  UNL1        0.0343
      7 C         140.0396  141.2088  157.9609 C.3     1  UNL1        0.1239
      8 C         140.1022  139.5659  159.9726 C.2     1  UNL1        0.4100
      9 O         138.9831  140.3222  160.6250 O.2     1  UNL1       -0.2258
     10 N         140.6304  140.0092  158.6404 N.am    1  UNL1       -0.2363
     11 O         140.6930  138.3663  160.6521 O.3     1  UNL1       -0.4101
     12 C         142.7029  138.7985  166.2889 C.3     1  UNL1        0.0310
     13 C         142.2005  138.6904  164.8797 C.ar    1  UNL1       -0.0217
     14 C         142.5836  139.7268  163.8653 C.ar    1  UNL1       -0.0011
     15 C         142.0812  139.6188  162.4561 C.ar    1  UNL1        0.0373
     16 C         141.1955  138.4743  162.0613 C.ar    1  UNL1        0.1500
     17 C         140.8123  137.4379  163.0757 C.ar    1  UNL1        0.0373
     18 C         141.3148  137.5460  164.4850 C.ar    1  UNL1       -0.0011
     19 C         141.7495  139.2529  157.9880 C.3     1  UNL1        0.1388
     20 C         143.1659  139.7178  158.1543 C.2     1  UNL1        0.0706
     21 O         143.8214  140.5269  157.0746 O.co2   1  UNL1       -0.5474
     22 O         143.9269  139.3735  159.4002 O.co2   1  UNL1       -0.5474
     23 O         139.6452  145.6006  160.7099 O.3     1  UNL1       -0.4689
     24 C         140.3036  145.8512  162.0342 C.3     1  UNL1        0.2537
     25 C         140.5460  144.7116  162.9789 C.ar    1  UNL1        0.1359
     26 N         139.5582  143.6431  163.3434 N.ar    1  UNL1       -0.2093
     27 C         140.2204  142.7115  164.3147 C.ar    1  UNL1        0.2290
     28 O         141.6175  143.2041  164.5506 O.2     1  UNL1       -0.4391
     29 C         141.8187  144.4402  163.7250 C.ar    1  UNL1        0.1421
     30 C         143.0724  145.2609  163.6574 C.3     1  UNL1        0.0740
     31 C         139.5953  141.5000  164.9403 C.ar    1  UNL1        0.0535
     32 C         138.7700  140.5661  164.1056 C.ar    1  UNL1        0.0043
     33 C         138.1449  139.3546  164.7311 C.ar    1  UNL1       -0.0041
     34 C         138.3451  139.0769  166.1916 C.ar    1  UNL1       -0.0218
     35 C         137.7200  137.8653  166.8172 C.3     1  UNL1        0.0310
     36 C         139.1703  140.0107  167.0264 C.ar    1  UNL1       -0.0041
     37 C         139.7954  141.2223  166.4007 C.ar    1  UNL1        0.0043
@<TRIPOS>UNITY_ATOM_ATTR
21 1
charge -1
@<TRIPOS>BOND
     1    12    13    1
     2    13    14   ar
     3    14    15   ar
     4    15    16   ar
     5    16    11    1
     6    11     8    1
     7     8     9    2
     8     8    10   am
     9    10    19    1
    10    19    20    1
    11    20    21   ar
    12    20    22   ar
    13    10     7    1
    14     7     1    1
    15     1     2   ar
    16     2     3   ar
    17     3     4   ar
    18     4     5   ar
    19     5    23    1
    20    23    24    1
    21    24    25    1
    22    25    26   ar
    23    26    27   ar
    24    27    31    1
    25    31    32   ar
    26    32    33   ar
    27    33    34   ar
    28    34    35    1
    29    34    36   ar
    30    36    37   ar
    31    27    28   ar
    32    28    29   ar
    33    29    30    1
    34     5     6   ar
    35    16    17   ar
    36    17    18   ar
    37    18    13   ar
    38     6     1   ar
    39    29    25   ar
    40    37    31   ar
@<TRIPOS>MOLECULE
*****
 37 40 0 0 0
SMALL
GASTEIGER

@<TRIPOS>ATOM
      1 C         140.8687  144.6080  160.8288 C.ar    1  UNL1        0.0008
      2 C         140.6131  145.0384  159.4148 C.ar    1  UNL1       -0.0024
      3 C         141.5275  144.5845  158.3158 C.ar    1  UNL1        0.0028
      4 C         142.6975  143.7002  158.6307 C.ar    1  UNL1        0.0369
      5 C         142.9531  143.2698  160.0448 C.ar    1  UNL1        0.1389
      6 C         142.0387  143.7236  161.1438 C.ar    1  UNL1        0.0343
      7 C         139.9543  145.0619  161.9278 C.3     1  UNL1        0.1239
      8 C         138.3715  143.1765  162.7586 C.2     1  UNL1        0.4100
      9 O         137.6364  143.2177  161.4517 O.2     1  UNL1       -0.2258
     10 N         139.5305  144.0986  162.9966 N.am    1  UNL1       -0.2363
     11 O         137.9476  142.2132  163.8274 O.3     1  UNL1       -0.4101
     12 C         140.8544  137.0074  164.4984 C.3     1  UNL1        0.0310
     13 C         140.1277  138.3089  164.3306 C.ar    1  UNL1       -0.0217
     14 C         139.3799  138.9046  165.4864 C.ar    1  UNL1       -0.0011
     15 C         138.6532  140.2061  165.3187 C.ar    1  UNL1        0.0373
     16 C         138.6743  140.9118  163.9951 C.ar    1  UNL1        0.1500
     17 C         139.4222  140.3160  162.8394 C.ar    1  UNL1        0.0373
     18 C         140.1489  139.0145  163.0072 C.ar    1  UNL1       -0.0011
     19 C         140.2655  144.0573  164.3035 C.3     1  UNL1        0.1388
     20 C         139.5109  144.1903  165.5930 C.2     1  UNL1        0.0706
     21 O         138.4145  145.2062  165.7191 O.co2   1  UNL1       -0.5474
     22 O         139.8526  143.3073  166.7565 O.co2   1  UNL1       -0.5474
     23 O         144.1230  142.3855  160.3597 O.3     1  UNL1       -0.4689
     24 C         143.9258  140.9062  160.5111 C.3     1  UNL1        0.2537
     25 C         143.7610  140.3074  161.8764 C.ar    1  UNL1        0.1359
     26 N         143.5085  141.0644  163.1467 N.ar    1  UNL1       -0.2093
     27 C         143.4113  140.0713  164.2666 C.ar    1  UNL1        0.2290
     28 O         143.6037  138.7005  163.6887 O.2     1  UNL1       -0.4391
     29 C         143.8199  138.8464  162.2114 C.ar    1  UNL1        0.1421
     30 C         144.0537  137.7278  161.2398 C.3     1  UNL1        0.0740
     31 C         143.1650  140.3925  165.7109 C.ar    1  UNL1        0.0535
     32 C         143.1839  141.8185  166.1758 C.ar    1  UNL1        0.0043
     33 C         142.9375  142.1399  167.6202 C.ar    1  UNL1       -0.0041
     34 C         142.6722  141.0351  168.5996 C.ar    1  UNL1       -0.0218
     35 C         142.4259  141.3564  170.0439 C.3     1  UNL1        0.0310
     36 C         142.6533  139.6091  168.1346 C.ar    1  UNL1       -0.0041
     37 C         142.8997  139.2878  166.6903 C.ar    1  UNL1        0.0043
@<TRIPOS>UNITY_ATOM_ATTR
21 1
charge -1
@<TRIPOS>BOND
     1    12    13    1
     2    13    14   ar
     3    14    15   ar
     4    15    16   ar
     5    16    11    1
     6    11     8    1
     7     8     9    2
     8     8    10   am
     9    10    19    1
    10    19    20    1
    11    20    21   ar
    12    20    22   ar
    13    10     7    1
    14     7     1    1
    15     1     2   ar
    16     2     3   ar
    17     3     4   ar
    18     4     5   ar
    19     5    23    1
    20    23    24    1
    21    24    25    1
    22    25    26   ar
    23    26    27   ar
    24    27    31    1
    25    31    32   ar
    26    32    33   ar
    27    33    34   ar
    28    34    35    1
    29    34    36   ar
    30    36    37   ar
    31    27    28   ar
    32    28    29   ar
    33    29    30    1
    34     5     6   ar
    35    16    17   ar
    36    17    18   ar
    37    18    13   ar
    38     6     1   ar
    39    29    25   ar
    40    37    31   ar
@<TRIPOS>MOLECULE
*****
 37 40 0 0 0
SMALL
GASTEIGER

@<TRIPOS>ATOM
      1 C         141.0479  141.1699  159.8308 C.ar    1  UNL1        0.0008
      2 C         142.2219  141.7224  159.0782 C.ar    1  UNL1       -0.0024
      3 C         142.6554  143.1410  159.3010 C.ar    1  UNL1        0.0028
      4 C         141.9148  144.0071  160.2764 C.ar    1  UNL1        0.0369
      5 C         140.7407  143.4546  161.0290 C.ar    1  UNL1        0.1389
      6 C         140.3073  142.0360  160.8062 C.ar    1  UNL1        0.0343
      7 C         140.6145  139.7512  159.6080 C.3     1  UNL1        0.1239
      8 C         139.0041  138.7255  161.3700 C.2     1  UNL1        0.4100
      9 O         137.8663  139.5098  160.7867 O.2     1  UNL1       -0.2258
     10 N         140.3783  138.8462  160.7806 N.am    1  UNL1       -0.2363
     11 O         138.7679  137.8204  162.5426 O.3     1  UNL1       -0.4101
     12 C         139.0175  140.0127  168.1221 C.3     1  UNL1        0.0310
     13 C         138.9551  139.4646  166.7273 C.ar    1  UNL1       -0.0217
     14 C         138.6260  138.0184  166.5037 C.ar    1  UNL1       -0.0011
     15 C         138.5636  137.4703  165.1089 C.ar    1  UNL1        0.0373
     16 C         138.8303  138.3685  163.9375 C.ar    1  UNL1        0.1500
     17 C         139.1594  139.8148  164.1610 C.ar    1  UNL1        0.0373
     18 C         139.2218  140.3628  165.5560 C.ar    1  UNL1       -0.0011
     19 C         141.5161  138.0619  161.3639 C.3     1  UNL1        0.1388
     20 C         142.6256  138.7713  162.0820 C.2     1  UNL1        0.0706
     21 O         142.3302  139.9980  162.8933 O.co2   1  UNL1       -0.5474
     22 O         144.0305  138.2540  161.9889 O.co2   1  UNL1       -0.5474
     23 O         140.0002  144.3207  162.0043 O.3     1  UNL1       -0.4689
     24 C         140.7382  144.9837  163.1294 C.3     1  UNL1        0.2537
     25 C         141.6580  144.1797  163.9997 C.ar    1  UNL1        0.1359
     26 N         141.2403  143.2150  165.0698 N.ar    1  UNL1       -0.2093
     27 C         142.4812  142.6383  165.6842 C.ar    1  UNL1        0.2290
     28 O         143.6660  143.2465  164.9939 O.2     1  UNL1       -0.4391
     29 C         143.1572  144.1991  163.9528 C.ar    1  UNL1        0.1421
     30 C         143.9997  145.0260  163.0274 C.3     1  UNL1        0.0740
     31 C         142.5290  141.6304  166.7940 C.ar    1  UNL1        0.0535
     32 C         142.3616  142.0734  168.2172 C.ar    1  UNL1        0.0043
     33 C         142.4094  141.0655  169.3272 C.ar    1  UNL1       -0.0041
     34 C         142.6245  139.6144  169.0137 C.ar    1  UNL1       -0.0218
     35 C         142.6723  138.6065  170.1236 C.3     1  UNL1        0.0310
     36 C         142.7919  139.1714  167.5904 C.ar    1  UNL1       -0.0041
     37 C         142.7441  140.1794  166.4806 C.ar    1  UNL1        0.0043
@<TRIPOS>UNITY_ATOM_ATTR
21 1
charge -1
@<TRIPOS>BOND
     1    12    13    1
     2    13    14   ar
     3    14    15   ar
     4    15    16   ar
     5    16    11    1
     6    11     8    1
     7     8     9    2
     8     8    10   am
     9    10    19    1
    10    19    20    1
    11    20    21   ar
    12    20    22   ar
    13    10     7    1
    14     7     1    1
    15     1     2   ar
    16     2     3   ar
    17     3     4   ar
    18     4     5   ar
    19     5    23    1
    20    23    24    1
    21    24    25    1
    22    25    26   ar
    23    26    27   ar
    24    27    31    1
    25    31    32   ar
    26    32    33   ar
    27    33    34   ar
    28    34    35    1
    29    34    36   ar
    30    36    37   ar
    31    27    28   ar
    32    28    29   ar
    33    29    30    1
    34     5     6   ar
    35    16    17   ar
    36    17    18   ar
    37    18    13   ar
    38     6     1   ar
    39    29    25   ar
    40    37    31   ar
