@<TRIPOS>MOLECULE
*****
 27 29 0 0 0
SMALL
GASTEIGER

@<TRIPOS>ATOM
      1 N         139.0555  138.5386  164.4664 N.am    1  UNL1       -0.2681
      2 C         139.8724  139.7941  164.5456 C.3     1  UNL1        0.1222
      3 C         139.8920  140.2450  165.9761 C.ar    1  UNL1        0.0196
      4 C         139.0872  139.2680  166.7810 C.ar    1  UNL1        0.1319
      5 N         138.9291  139.4649  168.2596 N.ar    1  UNL1       -0.2456
      6 C         139.5759  140.6388  168.9333 C.ar    1  UNL1        0.0568
      7 C         139.4178  140.8357  170.4119 C.3     1  UNL1        0.0518
      8 C         140.3807  141.6158  168.1284 C.ar    1  UNL1        0.0068
      9 C         140.5388  141.4188  166.6497 C.ar    1  UNL1       -0.0015
     10 C         138.5703  138.2135  165.8480 C.2     1  UNL1        0.2668
     11 O         137.7177  137.0398  166.2295 O.2     1  UNL1       -0.2683
     12 C         141.3436  142.3957  165.8448 C.ar    1  UNL1        0.0102
     13 C         142.8363  142.2640  165.7798 C.ar    1  UNL1        0.0017
     14 C         143.6411  143.2409  164.9748 C.ar    1  UNL1        0.0114
     15 C         142.9532  144.3496  164.2350 C.ar    1  UNL1        0.0585
     16 CL        143.7580  145.3265  163.4300 Cl      1  UNL1       -0.0822
     17 C         141.4603  144.4814  164.3000 C.ar    1  UNL1        0.0228
     18 C         140.6555  143.5045  165.1049 C.ar    1  UNL1        0.0585
     19 CL        139.1628  143.6362  165.1699 Cl      1  UNL1       -0.0822
     20 C         141.0274  142.7896  168.8020 C.3     1  UNL1        0.0934
     21 N         140.1885  143.9417  169.2697 N.3     1  UNL1       -0.3174
     22 H         139.7777  144.4125  168.4635 H       1  UNL1        0.1192
     23 H         140.7720  144.5994  169.7867 H       1  UNL1        0.1192
     24 C         138.7734  137.7472  163.2238 C.3     1  UNL1        0.1261
     25 C         139.6812  137.8674  162.0357 C.3     1  UNL1        0.1637
     26 C         142.2207  137.9861  162.5711 C.3     1  UNL1        0.1742
     27 O         141.0355  137.2230  162.0583 O.3     1  UNL1       -0.3493
@<TRIPOS>BOND
     1    26    27    1
     2    27    25    1
     3    25    24    1
     4    24     1    1
     5     1     2    1
     6     2     3    1
     7     3     4   ar
     8     4     5   ar
     9     5     6   ar
    10     6     7    1
    11     6     8   ar
    12     8    20    1
    13    20    21    1
    14     8     9   ar
    15     9    12    1
    16    12    13   ar
    17    13    14   ar
    18    14    15   ar
    19    15    16    1
    20    15    17   ar
    21    17    18   ar
    22    18    19    1
    23     4    10    1
    24    10    11    2
    25    10     1   am
    26     9     3   ar
    27    18    12   ar
    28    21    22    1
    29    21    23    1
@<TRIPOS>MOLECULE
*****
 27 29 0 0 0
SMALL
GASTEIGER

@<TRIPOS>ATOM
      1 N         139.1006  138.4585  164.4545 N.am    1  UNL1       -0.2681
      2 C         139.9127  139.7186  164.5059 C.3     1  UNL1        0.1222
      3 C         139.9139  140.2120  165.9224 C.ar    1  UNL1        0.0196
      4 C         139.1025  139.2568  166.7466 C.ar    1  UNL1        0.1319
      5 N         138.9261  139.4973  168.2166 N.ar    1  UNL1       -0.2456
      6 C         139.5612  140.6929  168.8625 C.ar    1  UNL1        0.0568
      7 C         139.3848  140.9334  170.3326 C.3     1  UNL1        0.0518
      8 C         140.3726  141.6481  168.0384 C.ar    1  UNL1        0.0068
      9 C         140.5489  141.4076  166.5683 C.ar    1  UNL1       -0.0015
     10 C         138.5999  138.1732  165.8394 C.2     1  UNL1        0.2668
     11 O         137.7463  137.0085  166.2457 O.2     1  UNL1       -0.2683
     12 C         141.3603  142.3628  165.7441 C.ar    1  UNL1        0.0102
     13 C         142.8453  142.1830  165.6327 C.ar    1  UNL1        0.0017
     14 C         143.6567  143.1382  164.8085 C.ar    1  UNL1        0.0114
     15 C         142.9831  144.2732  164.0957 C.ar    1  UNL1        0.0585
     16 CL        143.7945  145.2283  163.2716 Cl      1  UNL1       -0.0822
     17 C         141.4981  144.4530  164.2071 C.ar    1  UNL1        0.0228
     18 C         140.6867  143.4978  165.0313 C.ar    1  UNL1        0.0585
     19 CL        139.2017  143.6776  165.1427 Cl      1  UNL1       -0.0822
     20 C         141.0076  142.8437  168.6842 C.3     1  UNL1        0.0934
     21 N         142.3645  142.7245  169.3125 N.3     1  UNL1       -0.3174
     22 H         142.3122  142.1024  170.1191 H       1  UNL1        0.1192
     23 H         142.6818  143.6459  169.6137 H       1  UNL1        0.1192
     24 C         138.8358  137.6294  163.2329 C.3     1  UNL1        0.1261
     25 C         138.6861  138.2913  161.8952 C.3     1  UNL1        0.1637
     26 C         137.7030  140.6837  161.6497 C.3     1  UNL1        0.1742
     27 O         137.5183  139.1952  161.6321 O.3     1  UNL1       -0.3493
@<TRIPOS>BOND
     1    26    27    1
     2    27    25    1
     3    25    24    1
     4    24     1    1
     5     1     2    1
     6     2     3    1
     7     3     4   ar
     8     4     5   ar
     9     5     6   ar
    10     6     7    1
    11     6     8   ar
    12     8    20    1
    13    20    21    1
    14     8     9   ar
    15     9    12    1
    16    12    13   ar
    17    13    14   ar
    18    14    15   ar
    19    15    16    1
    20    15    17   ar
    21    17    18   ar
    22    18    19    1
    23     4    10    1
    24    10    11    2
    25    10     1   am
    26     9     3   ar
    27    18    12   ar
    28    21    22    1
    29    21    23    1
@<TRIPOS>MOLECULE
*****
 27 29 0 0 0
SMALL
GASTEIGER

@<TRIPOS>ATOM
      1 N         140.1744  142.6033  163.6279 N.am    1  UNL1       -0.2681
      2 C         140.6348  142.6283  165.0553 C.3     1  UNL1        0.1222
      3 C         139.9155  141.5385  165.7936 C.ar    1  UNL1        0.0196
      4 C         139.0106  140.8399  164.8225 C.ar    1  UNL1        0.1319
      5 N         138.1579  139.6949  165.2824 N.ar    1  UNL1       -0.2456
      6 C         138.2100  139.2483  166.7135 C.ar    1  UNL1        0.0568
      7 C         137.3572  138.1033  167.1734 C.3     1  UNL1        0.0518
      8 C         139.1149  139.9470  167.6846 C.ar    1  UNL1        0.0068
      9 C         139.9677  141.0921  167.2246 C.ar    1  UNL1       -0.0015
     10 C         139.1706  141.4980  163.4840 C.2     1  UNL1        0.2668
     11 O         138.4528  141.1175  162.2231 O.2     1  UNL1       -0.2683
     12 C         140.8727  141.7907  168.1957 C.ar    1  UNL1        0.0102
     13 C         140.3675  142.9653  168.9799 C.ar    1  UNL1        0.0017
     14 C         141.2724  143.6639  169.9510 C.ar    1  UNL1        0.0114
     15 C         142.6825  143.1879  170.1379 C.ar    1  UNL1        0.0585
     16 CL        143.5875  143.8865  171.1090 Cl      1  UNL1       -0.0822
     17 C         143.1878  142.0132  169.3537 C.ar    1  UNL1        0.0228
     18 C         142.2828  141.3146  168.3826 C.ar    1  UNL1        0.0585
     19 CL        142.7880  140.1400  167.5984 Cl      1  UNL1       -0.0822
     20 C         139.1671  139.5005  169.1156 C.3     1  UNL1        0.0934
     21 N         138.2614  140.1311  170.1315 N.3     1  UNL1       -0.3174
     22 H         138.5138  141.1123  170.2495 H       1  UNL1        0.1192
     23 H         138.3597  139.6451  171.0229 H       1  UNL1        0.1192
     24 C         140.6366  143.5222  162.5361 C.3     1  UNL1        0.1261
     25 C         142.0046  143.3549  161.9441 C.3     1  UNL1        0.1637
     26 C         144.0380  144.5765  163.0040 C.3     1  UNL1        0.1742
     27 O         142.9709  144.5022  161.9524 O.3     1  UNL1       -0.3493
@<TRIPOS>BOND
     1    26    27    1
     2    27    25    1
     3    25    24    1
     4    24     1    1
     5     1     2    1
     6     2     3    1
     7     3     4   ar
     8     4     5   ar
     9     5     6   ar
    10     6     7    1
    11     6     8   ar
    12     8    20    1
    13    20    21    1
    14     8     9   ar
    15     9    12    1
    16    12    13   ar
    17    13    14   ar
    18    14    15   ar
    19    15    16    1
    20    15    17   ar
    21    17    18   ar
    22    18    19    1
    23     4    10    1
    24    10    11    2
    25    10     1   am
    26     9     3   ar
    27    18    12   ar
    28    21    22    1
    29    21    23    1
@<TRIPOS>MOLECULE
*****
 27 29 0 0 0
SMALL
GASTEIGER

@<TRIPOS>ATOM
      1 N         139.1520  143.7342  163.3546 N.am    1  UNL1       -0.2681
      2 C         139.6994  142.8499  164.4355 C.3     1  UNL1        0.1222
      3 C         139.4138  141.4263  164.0587 C.ar    1  UNL1        0.0196
      4 C         138.6899  141.4308  162.7450 C.ar    1  UNL1        0.1319
      5 N         138.2717  140.1355  162.1147 N.ar    1  UNL1       -0.2456
      6 C         138.5773  138.8357  162.7982 C.ar    1  UNL1        0.0568
      7 C         138.1590  137.5404  162.1679 C.3     1  UNL1        0.0518
      8 C         139.3012  138.8312  164.1119 C.ar    1  UNL1        0.0068
      9 C         139.7195  140.1266  164.7422 C.ar    1  UNL1       -0.0015
     10 C         138.5281  142.8572  162.3098 C.2     1  UNL1        0.2668
     11 O         137.8597  143.3244  161.0509 O.2     1  UNL1       -0.2683
     12 C         140.4434  140.1221  166.0560 C.ar    1  UNL1        0.0102
     13 C         139.6691  140.1828  167.3392 C.ar    1  UNL1        0.0017
     14 C         140.3930  140.1783  168.6529 C.ar    1  UNL1        0.0114
     15 C         141.8912  140.1131  168.6835 C.ar    1  UNL1        0.0585
     16 CL        142.6151  140.1087  169.9972 Cl      1  UNL1       -0.0822
     17 C         142.6656  140.0524  167.4002 C.ar    1  UNL1        0.0228
     18 C         141.9417  140.0569  166.0864 C.ar    1  UNL1        0.0585
     19 CL        142.7160  139.9962  164.8032 Cl      1  UNL1       -0.0822
     20 C         139.6068  137.5315  164.7954 C.3     1  UNL1        0.0934
     21 N         140.9268  136.8565  164.5675 N.3     1  UNL1       -0.3174
     22 H         140.9921  136.5573  163.5945 H       1  UNL1        0.1192
     23 H         141.0032  136.0438  165.1790 H       1  UNL1        0.1192
     24 C         139.2170  145.2325  163.3239 C.3     1  UNL1        0.1261
     25 C         140.0770  145.9252  162.3087 C.3     1  UNL1        0.1637
     26 C         140.3649  145.4307  159.7744 C.3     1  UNL1        0.1742
     27 O         139.5988  146.0702  160.8944 O.3     1  UNL1       -0.3493
@<TRIPOS>BOND
     1    26    27    1
     2    27    25    1
     3    25    24    1
     4    24     1    1
     5     1     2    1
     6     2     3    1
     7     3     4   ar
     8     4     5   ar
     9     5     6   ar
    10     6     7    1
    11     6     8   ar
    12     8    20    1
    13    20    21    1
    14     8     9   ar
    15     9    12    1
    16    12    13   ar
    17    13    14   ar
    18    14    15   ar
    19    15    16    1
    20    15    17   ar
    21    17    18   ar
    22    18    19    1
    23     4    10    1
    24    10    11    2
    25    10     1   am
    26     9     3   ar
    27    18    12   ar
    28    21    22    1
    29    21    23    1
@<TRIPOS>MOLECULE
*****
 27 29 0 0 0
SMALL
GASTEIGER

@<TRIPOS>ATOM
      1 N         140.2711  142.0762  168.6471 N.am    1  UNL1       -0.2681
      2 C         140.0944  142.6388  167.2678 C.3     1  UNL1        0.1222
      3 C         139.7619  141.5049  166.3438 C.ar    1  UNL1        0.0196
      4 C         139.7330  140.2416  167.1520 C.ar    1  UNL1        0.1319
      5 N         139.4238  138.9329  166.4873 N.ar    1  UNL1       -0.2456
      6 C         139.1436  138.8876  165.0144 C.ar    1  UNL1        0.0568
      7 C         138.8344  137.5789  164.3497 C.3     1  UNL1        0.0518
      8 C         139.1725  140.1509  164.2062 C.ar    1  UNL1        0.0068
      9 C         139.4816  141.4596  164.8709 C.ar    1  UNL1       -0.0015
     10 C         140.0477  140.5947  168.5755 C.2     1  UNL1        0.2668
     11 O         140.1254  139.6347  169.7254 O.2     1  UNL1       -0.2683
     12 C         139.5105  142.7229  164.0628 C.ar    1  UNL1        0.0102
     13 C         138.2429  143.4873  163.8202 C.ar    1  UNL1        0.0017
     14 C         138.2718  144.7506  163.0120 C.ar    1  UNL1        0.0114
     15 C         139.5683  145.2496  162.4464 C.ar    1  UNL1        0.0585
     16 CL        139.5972  146.5129  161.6382 Cl      1  UNL1       -0.0822
     17 C         140.8360  144.4853  162.6889 C.ar    1  UNL1        0.0228
     18 C         140.8071  143.2219  163.4971 C.ar    1  UNL1        0.0585
     19 CL        142.0747  142.4576  163.7396 Cl      1  UNL1       -0.0822
     20 C         138.8922  140.1056  162.7333 C.3     1  UNL1        0.0934
     21 N         137.4797  140.1906  162.2357 N.3     1  UNL1       -0.3174
     22 H         136.9640  139.3624  162.5332 H       1  UNL1        0.1192
     23 H         137.4807  140.2429  161.2171 H       1  UNL1        0.1192
     24 C         140.6114  142.8580  169.8812 C.3     1  UNL1        0.1261
     25 C         142.0136  143.3444  170.0980 C.3     1  UNL1        0.1637
     26 C         143.3400  141.1106  170.0687 C.3     1  UNL1        0.1742
     27 O         143.1742  142.5291  169.6099 O.3     1  UNL1       -0.3493
@<TRIPOS>BOND
     1    26    27    1
     2    27    25    1
     3    25    24    1
     4    24     1    1
     5     1     2    1
     6     2     3    1
     7     3     4   ar
     8     4     5   ar
     9     5     6   ar
    10     6     7    1
    11     6     8   ar
    12     8    20    1
    13    20    21    1
    14     8     9   ar
    15     9    12    1
    16    12    13   ar
    17    13    14   ar
    18    14    15   ar
    19    15    16    1
    20    15    17   ar
    21    17    18   ar
    22    18    19    1
    23     4    10    1
    24    10    11    2
    25    10     1   am
    26     9     3   ar
    27    18    12   ar
    28    21    22    1
    29    21    23    1
@<TRIPOS>MOLECULE
*****
 27 29 0 0 0
SMALL
GASTEIGER

@<TRIPOS>ATOM
      1 N         142.6969  141.6198  167.6989 N.am    1  UNL1       -0.2681
      2 C         142.0715  142.2744  166.5029 C.3     1  UNL1        0.1222
      3 C         141.5679  141.1934  165.5931 C.ar    1  UNL1        0.0196
      4 C         141.8820  139.8706  166.2269 C.ar    1  UNL1        0.1319
      5 N         141.4920  138.5970  165.5371 N.ar    1  UNL1       -0.2456
      6 C         140.7880  138.6462  164.2134 C.ar    1  UNL1        0.0568
      7 C         140.3981  137.3726  163.5236 C.3     1  UNL1        0.0518
      8 C         140.4739  139.9689  163.5797 C.ar    1  UNL1        0.0068
      9 C         140.8639  141.2426  164.2696 C.ar    1  UNL1       -0.0015
     10 C         142.5797  140.1342  167.5283 C.2     1  UNL1        0.2668
     11 O         143.0736  139.0946  168.4903 O.2     1  UNL1       -0.2683
     12 C         140.5498  142.5653  163.6358 C.ar    1  UNL1        0.0102
     13 C         141.5657  143.2379  162.7609 C.ar    1  UNL1        0.0017
     14 C         141.2516  144.5607  162.1272 C.ar    1  UNL1        0.0114
     15 C         139.9216  145.2109  162.3683 C.ar    1  UNL1        0.0585
     16 CL        139.6075  146.5336  161.7346 Cl      1  UNL1       -0.0822
     17 C         138.9056  144.5383  163.2432 C.ar    1  UNL1        0.0228
     18 C         139.2196  143.2155  163.8770 C.ar    1  UNL1        0.0585
     19 CL        138.2037  142.5430  164.7519 Cl      1  UNL1       -0.0822
     20 C         139.7699  140.0181  162.2561 C.3     1  UNL1        0.0934
     21 N         138.2709  140.0136  162.2033 N.3     1  UNL1       -0.3174
     22 H         137.9212  139.1201  162.5496 H       1  UNL1        0.1192
     23 H         137.9641  140.1484  161.2400 H       1  UNL1        0.1192
     24 C         143.3284  142.3268  168.8614 C.3     1  UNL1        0.1261
     25 C         142.5748  142.4724  170.1501 C.3     1  UNL1        0.1637
     26 C         140.4114  143.8764  169.8361 C.3     1  UNL1        0.1742
     27 O         141.7841  143.7182  170.4199 O.3     1  UNL1       -0.3493
@<TRIPOS>BOND
     1    26    27    1
     2    27    25    1
     3    25    24    1
     4    24     1    1
     5     1     2    1
     6     2     3    1
     7     3     4   ar
     8     4     5   ar
     9     5     6   ar
    10     6     7    1
    11     6     8   ar
    12     8    20    1
    13    20    21    1
    14     8     9   ar
    15     9    12    1
    16    12    13   ar
    17    13    14   ar
    18    14    15   ar
    19    15    16    1
    20    15    17   ar
    21    17    18   ar
    22    18    19    1
    23     4    10    1
    24    10    11    2
    25    10     1   am
    26     9     3   ar
    27    18    12   ar
    28    21    22    1
    29    21    23    1
@<TRIPOS>MOLECULE
*****
 27 29 0 0 0
SMALL
GASTEIGER

@<TRIPOS>ATOM
      1 N         140.9802  142.9186  162.1725 N.am    1  UNL1       -0.2681
      2 C         140.4901  141.9007  163.1592 C.3     1  UNL1        0.1222
      3 C         141.6781  141.1402  163.6696 C.ar    1  UNL1        0.0196
      4 C         142.9024  141.6881  162.9982 C.ar    1  UNL1        0.1319
      5 N         144.2519  141.1155  163.3161 N.ar    1  UNL1       -0.2456
      6 C         144.3770  139.9949  164.3054 C.ar    1  UNL1        0.0568
      7 C         145.7264  139.4223  164.6233 C.3     1  UNL1        0.0518
      8 C         143.1526  139.4470  164.9767 C.ar    1  UNL1        0.0068
      9 C         141.8031  140.0197  164.6588 C.ar    1  UNL1       -0.0015
     10 C         142.4711  142.7872  162.0730 C.2     1  UNL1        0.2668
     11 O         143.3725  143.6104  161.2013 O.2     1  UNL1       -0.2683
     12 C         140.5788  139.4717  165.3301 C.ar    1  UNL1        0.0102
     13 C         140.0679  140.1044  166.5906 C.ar    1  UNL1        0.0017
     14 C         138.8435  139.5565  167.2619 C.ar    1  UNL1        0.0114
     15 C         138.1301  138.3759  166.6729 C.ar    1  UNL1        0.0585
     16 CL        136.9057  137.8279  167.3442 Cl      1  UNL1       -0.0822
     17 C         138.6409  137.7431  165.4124 C.ar    1  UNL1        0.0228
     18 C         139.8653  138.2910  164.7410 C.ar    1  UNL1        0.0585
     19 CL        140.3761  137.6584  163.4806 Cl      1  UNL1       -0.0822
     20 C         143.2777  138.3264  165.9660 C.3     1  UNL1        0.0934
     21 N         143.3883  138.6283  167.4311 N.3     1  UNL1       -0.3174
     22 H         144.2661  139.1150  167.6126 H       1  UNL1        0.1192
     23 H         143.3671  137.7566  167.9604 H       1  UNL1        0.1192
     24 C         140.1289  143.8962  161.4178 C.3     1  UNL1        0.1261
     25 C         139.6035  145.1209  162.1062 C.3     1  UNL1        0.1637
     26 C         137.5906  144.0190  163.3245 C.3     1  UNL1        0.1742
     27 O         138.1752  145.1708  162.5617 O.3     1  UNL1       -0.3493
@<TRIPOS>BOND
     1    26    27    1
     2    27    25    1
     3    25    24    1
     4    24     1    1
     5     1     2    1
     6     2     3    1
     7     3     4   ar
     8     4     5   ar
     9     5     6   ar
    10     6     7    1
    11     6     8   ar
    12     8    20    1
    13    20    21    1
    14     8     9   ar
    15     9    12    1
    16    12    13   ar
    17    13    14   ar
    18    14    15   ar
    19    15    16    1
    20    15    17   ar
    21    17    18   ar
    22    18    19    1
    23     4    10    1
    24    10    11    2
    25    10     1   am
    26     9     3   ar
    27    18    12   ar
    28    21    22    1
    29    21    23    1
@<TRIPOS>MOLECULE
*****
 27 29 0 0 0
SMALL
GASTEIGER

@<TRIPOS>ATOM
      1 N         141.4637  144.0673  162.9610 N.am    1  UNL1       -0.2681
      2 C         141.1454  143.1439  164.0994 C.3     1  UNL1        0.1222
      3 C         141.7169  141.7952  163.7761 C.ar    1  UNL1        0.0196
      4 C         142.3884  141.8851  162.4378 C.ar    1  UNL1        0.1319
      5 N         143.0557  140.6767  161.8508 N.ar    1  UNL1       -0.2456
      6 C         143.0513  139.3783  162.6021 C.ar    1  UNL1        0.0568
      7 C         143.7185  138.1700  162.0151 C.3     1  UNL1        0.0518
      8 C         142.3797  139.2885  163.9404 C.ar    1  UNL1        0.0068
      9 C         141.7125  140.4969  164.5273 C.ar    1  UNL1       -0.0015
     10 C         142.2320  143.2893  161.9341 C.2     1  UNL1        0.2668
     11 O         142.7524  143.8220  160.6320 O.2     1  UNL1       -0.2683
     12 C         141.0409  140.4070  165.8656 C.ar    1  UNL1        0.0102
     13 C         141.7956  140.7719  167.1095 C.ar    1  UNL1        0.0017
     14 C         141.1240  140.6820  168.4477 C.ar    1  UNL1        0.0114
     15 C         139.6977  140.2273  168.5421 C.ar    1  UNL1        0.0585
     16 CL        139.0262  140.1374  169.8803 Cl      1  UNL1       -0.0822
     17 C         138.9430  139.8624  167.2981 C.ar    1  UNL1        0.0228
     18 C         139.6146  139.9523  165.9599 C.ar    1  UNL1        0.0585
     19 CL        138.8599  139.5875  164.7160 Cl      1  UNL1       -0.0822
     20 C         142.3754  137.9902  164.6916 C.3     1  UNL1        0.0934
     21 N         141.2649  137.0045  164.4791 N.3     1  UNL1       -0.3174
     22 H         140.3886  137.4011  164.8186 H       1  UNL1        0.1192
     23 H         141.4700  136.1459  164.9901 H       1  UNL1        0.1192
     24 C         141.0810  145.5145  162.8661 C.3     1  UNL1        0.1261
     25 C         139.8125  145.9108  162.1707 C.3     1  UNL1        0.1637
     26 C         137.8616  144.4158  163.0128 C.3     1  UNL1        0.1742
     27 O         138.7528  144.8840  161.9007 O.3     1  UNL1       -0.3493
@<TRIPOS>BOND
     1    26    27    1
     2    27    25    1
     3    25    24    1
     4    24     1    1
     5     1     2    1
     6     2     3    1
     7     3     4   ar
     8     4     5   ar
     9     5     6   ar
    10     6     7    1
    11     6     8   ar
    12     8    20    1
    13    20    21    1
    14     8     9   ar
    15     9    12    1
    16    12    13   ar
    17    13    14   ar
    18    14    15   ar
    19    15    16    1
    20    15    17   ar
    21    17    18   ar
    22    18    19    1
    23     4    10    1
    24    10    11    2
    25    10     1   am
    26     9     3   ar
    27    18    12   ar
    28    21    22    1
    29    21    23    1
@<TRIPOS>MOLECULE
*****
 27 29 0 0 0
SMALL
GASTEIGER

@<TRIPOS>ATOM
      1 N         143.3726  142.0869  163.2024 N.am    1  UNL1       -0.2681
      2 C         142.8679  141.7019  164.5614 C.3     1  UNL1        0.1222
      3 C         141.7820  140.6829  164.3811 C.ar    1  UNL1        0.0196
      4 C         141.6156  140.4381  162.9106 C.ar    1  UNL1        0.1319
      5 N         140.5904  139.4568  162.4249 N.ar    1  UNL1       -0.2456
      6 C         139.7316  138.7201  163.4097 C.ar    1  UNL1        0.0568
      7 C         138.7064  137.7388  162.9240 C.3     1  UNL1        0.0518
      8 C         139.8980  138.9649  164.8802 C.ar    1  UNL1        0.0068
      9 C         140.9232  139.9463  165.3659 C.ar    1  UNL1       -0.0015
     10 C         142.5987  141.3058  162.1821 C.2     1  UNL1        0.2668
     11 O         142.7766  141.3795  160.6945 O.2     1  UNL1       -0.2683
     12 C         141.0896  140.1911  166.8364 C.ar    1  UNL1        0.0102
     13 C         140.1357  141.0957  167.5588 C.ar    1  UNL1        0.0017
     14 C         140.3021  141.3404  169.0293 C.ar    1  UNL1        0.0114
     15 C         141.4223  140.6806  169.7775 C.ar    1  UNL1        0.0585
     16 CL        141.5887  140.9254  171.2480 Cl      1  UNL1       -0.0822
     17 C         142.3762  139.7760  169.0551 C.ar    1  UNL1        0.0228
     18 C         142.2098  139.5312  167.5846 C.ar    1  UNL1        0.0585
     19 CL        143.1637  138.6266  166.8622 Cl      1  UNL1       -0.0822
     20 C         139.0392  138.2283  165.8650 C.3     1  UNL1        0.0934
     21 N         137.7303  138.8146  166.3044 N.3     1  UNL1       -0.3174
     22 H         137.9013  139.6699  166.8332 H       1  UNL1        0.1192
     23 H         137.2378  138.1433  166.8936 H       1  UNL1        0.1192
     24 C         144.4604  143.0788  162.9142 C.3     1  UNL1        0.1261
     25 C         144.1392  144.5417  162.8335 C.3     1  UNL1        0.1637
     26 C         141.7901  145.3194  163.6253 C.3     1  UNL1        0.1742
     27 O         143.2626  145.1756  163.8726 O.3     1  UNL1       -0.3493
@<TRIPOS>BOND
     1    26    27    1
     2    27    25    1
     3    25    24    1
     4    24     1    1
     5     1     2    1
     6     2     3    1
     7     3     4   ar
     8     4     5   ar
     9     5     6   ar
    10     6     7    1
    11     6     8   ar
    12     8    20    1
    13    20    21    1
    14     8     9   ar
    15     9    12    1
    16    12    13   ar
    17    13    14   ar
    18    14    15   ar
    19    15    16    1
    20    15    17   ar
    21    17    18   ar
    22    18    19    1
    23     4    10    1
    24    10    11    2
    25    10     1   am
    26     9     3   ar
    27    18    12   ar
    28    21    22    1
    29    21    23    1
