@<TRIPOS>MOLECULE
*****
 30 34 0 0 0
SMALL
GASTEIGER

@<TRIPOS>ATOM
      1 C         141.3296  139.0137  163.5136 C.ar    1  UNL1        0.0046
      2 C         139.9886  138.5880  164.0335 C.ar    1  UNL1        0.0015
      3 C         139.6074  138.8815  165.4542 C.ar    1  UNL1        0.0181
      4 C         140.5672  139.6008  166.3550 C.ar    1  UNL1        0.0910
      5 C         141.9082  140.0265  165.8351 C.ar    1  UNL1        0.1522
      6 C         142.2894  139.7329  164.4144 C.ar    1  UNL1        0.0382
      7 O         142.8680  140.7457  166.7359 O.3     1  UNL1       -0.4723
      8 C         142.4868  141.0393  168.1566 C.3     1  UNL1        0.2293
      9 C         141.1457  140.6135  168.6766 C.3     1  UNL1        0.1691
     10 C         140.4966  140.7632  170.0206 C.3     1  UNL1        0.2216
     11 O         139.1357  140.1365  169.9503 O.3     1  UNL1       -0.4336
     12 C         138.9436  139.5995  168.5631 C.2     1  UNL1        0.4089
     13 O         137.7235  138.8919  168.0526 O.2     1  UNL1       -0.2258
     14 N         140.1859  139.8943  167.7758 N.am    1  UNL1       -0.2164
     15 C         142.4734  138.1331  159.2513 C.ar    1  UNL1        0.1005
     16 C         141.0903  138.6171  159.5721 C.ar    1  UNL1        0.0184
     17 C         140.7090  138.9106  160.9928 C.ar    1  UNL1        0.0029
     18 C         141.7109  138.7202  162.0928 C.ar    1  UNL1        0.0193
     19 C         143.0939  138.2362  161.7721 C.ar    1  UNL1        0.0985
     20 N         143.4752  137.9426  160.3513 N.ar    1  UNL1       -0.2446
     21 C         142.9538  135.7283  154.5751 C.3     1  UNL1        0.1184
     22 N         143.0754  136.7342  155.6811 N.am    1  UNL1       -0.2401
     23 C         142.4868  136.6094  157.0551 C.3     1  UNL1        0.1466
     24 C         142.8546  137.8396  157.8306 C.3     1  UNL1        0.2298
     25 O         143.6705  138.7248  156.9358 O.3     1  UNL1       -0.4303
     26 C         143.8070  138.0417  155.6074 C.2     1  UNL1        0.4053
     27 O         144.5455  138.5727  154.4146 O.2     1  UNL1       -0.2262
     28 C         141.1022  141.4237  171.2235 C.3     1  UNL1        0.1828
     29 O         142.1973  140.7369  171.9845 O.3     1  UNL1       -0.3785
     30 H         141.8476  139.9330  172.3996 H       1  UNL1        0.2106
@<TRIPOS>BOND
     1    21    22    1
     2    22    23    1
     3    23    24    1
     4    24    15    1
     5    15    16   ar
     6    16    17   ar
     7    17    18   ar
     8    18     1    1
     9     1     2   ar
    10     2     3   ar
    11     3     4   ar
    12     4     5   ar
    13     5     6   ar
    14     5     7    1
    15     7     8    1
    16     9     8    1
    17     9    10    1
    18    10    28    1
    19    28    29    1
    20    10    11    1
    21    11    12    1
    22    12    13    2
    23    12    14   am
    24    18    19   ar
    25    19    20   ar
    26    24    25    1
    27    25    26    1
    28    26    27    2
    29    26    22   am
    30    20    15   ar
    31     6     1   ar
    32    14     9    1
    33    14     4    1
    34    29    30    1
@<TRIPOS>MOLECULE
*****
 30 34 0 0 0
SMALL
GASTEIGER

@<TRIPOS>ATOM
      1 C         140.4093  142.6732  163.4163 C.ar    1  UNL1        0.0046
      2 C         139.3089  141.7839  163.9147 C.ar    1  UNL1        0.0015
      3 C         139.4091  141.1564  165.2735 C.ar    1  UNL1        0.0181
      4 C         140.6097  141.4182  166.1338 C.ar    1  UNL1        0.0910
      5 C         141.7100  142.3074  165.6354 C.ar    1  UNL1        0.1522
      6 C         141.6098  142.9349  164.2766 C.ar    1  UNL1        0.0382
      7 O         142.9106  142.5692  166.4957 O.3     1  UNL1       -0.4723
      8 C         143.0108  141.9417  167.8544 C.3     1  UNL1        0.2293
      9 C         141.9104  141.0524  168.3529 C.3     1  UNL1        0.1691
     10 C         141.7322  140.3005  169.6385 C.3     1  UNL1        0.2216
     11 O         140.4216  139.5740  169.5727 O.3     1  UNL1       -0.4336
     12 C         139.7897  139.8769  168.2465 C.2     1  UNL1        0.4089
     13 O         138.4695  139.3574  167.7596 O.2     1  UNL1       -0.2258
     14 N         140.7099  140.7907  167.4926 N.am    1  UNL1       -0.2164
     15 C         140.1088  144.5558  159.3400 C.ar    1  UNL1        0.1005
     16 C         141.2239  144.9440  160.2652 C.ar    1  UNL1        0.0184
     17 C         141.3240  144.3165  161.6239 C.ar    1  UNL1        0.0029
     18 C         140.3091  143.3007  162.0575 C.ar    1  UNL1        0.0193
     19 C         139.1940  142.9124  161.1325 C.ar    1  UNL1        0.0985
     20 N         139.0939  143.5399  159.7737 N.ar    1  UNL1       -0.2446
     21 C         140.2442  145.2518  154.1077 C.3     1  UNL1        0.1184
     22 N         140.0709  145.5032  155.5762 N.am    1  UNL1       -0.2401
     23 C         140.2999  144.5073  156.6743 C.3     1  UNL1        0.1466
     24 C         140.0086  145.1833  157.9813 C.3     1  UNL1        0.2298
     25 O         139.5997  146.5970  157.6911 O.3     1  UNL1       -0.4303
     26 C         139.6382  146.7947  156.2047 C.2     1  UNL1        0.4053
     27 O         139.3028  148.0616  155.4748 O.2     1  UNL1       -0.2262
     28 C         142.6956  140.2788  170.7880 C.3     1  UNL1        0.1828
     29 O         142.2250  140.6324  172.1677 O.3     1  UNL1       -0.3785
     30 H         141.9652  141.5667  172.1912 H       1  UNL1        0.2106
@<TRIPOS>BOND
     1    21    22    1
     2    22    23    1
     3    23    24    1
     4    24    15    1
     5    15    16   ar
     6    16    17   ar
     7    17    18   ar
     8    18     1    1
     9     1     2   ar
    10     2     3   ar
    11     3     4   ar
    12     4     5   ar
    13     5     6   ar
    14     5     7    1
    15     7     8    1
    16     9     8    1
    17     9    10    1
    18    10    28    1
    19    28    29    1
    20    10    11    1
    21    11    12    1
    22    12    13    2
    23    12    14   am
    24    18    19   ar
    25    19    20   ar
    26    24    25    1
    27    25    26    1
    28    26    27    2
    29    26    22   am
    30    20    15   ar
    31     6     1   ar
    32    14     9    1
    33    14     4    1
    34    29    30    1
@<TRIPOS>MOLECULE
*****
 30 34 0 0 0
SMALL
GASTEIGER

@<TRIPOS>ATOM
      1 C         141.2614  142.8308  163.1733 C.ar    1  UNL1        0.0046
      2 C         142.0777  141.5745  163.2469 C.ar    1  UNL1        0.0015
      3 C         142.2857  140.8915  164.5661 C.ar    1  UNL1        0.0181
      4 C         141.6773  141.4648  165.8116 C.ar    1  UNL1        0.0910
      5 C         140.8611  142.7210  165.7380 C.ar    1  UNL1        0.1522
      6 C         140.6531  143.4040  164.4189 C.ar    1  UNL1        0.0382
      7 O         140.2528  143.2943  166.9835 O.3     1  UNL1       -0.4723
      8 C         140.4607  142.6112  168.3027 C.3     1  UNL1        0.2293
      9 C         141.2770  141.3549  168.3763 C.3     1  UNL1        0.1691
     10 C         141.6515  140.4671  169.5260 C.3     1  UNL1        0.2216
     11 O         142.4912  139.3453  168.9910 O.3     1  UNL1       -0.4336
     12 C         142.6357  139.5396  167.5107 C.2     1  UNL1        0.4089
     13 O         143.3970  138.6485  166.5746 O.2     1  UNL1       -0.2258
     14 N         141.8853  140.7817  167.1308 N.am    1  UNL1       -0.2164
     15 C         140.6375  144.8800  159.2158 C.ar    1  UNL1        0.1005
     16 C         141.6133  143.7463  159.3278 C.ar    1  UNL1        0.0184
     17 C         141.8213  143.0632  160.6469 C.ar    1  UNL1        0.0029
     18 C         141.0534  143.5139  161.8541 C.ar    1  UNL1        0.0193
     19 C         140.0777  144.6476  161.7422 C.ar    1  UNL1        0.0985
     20 N         139.8697  145.3307  160.4230 N.ar    1  UNL1       -0.2446
     21 C         141.0129  146.1512  154.1047 C.3     1  UNL1        0.1184
     22 N         140.6021  146.1473  155.5473 N.am    1  UNL1       -0.2401
     23 C         141.1043  145.2092  156.6045 C.3     1  UNL1        0.1466
     24 C         140.4295  145.5630  157.8967 C.3     1  UNL1        0.2298
     25 O         139.5103  146.7198  157.6380 O.3     1  UNL1       -0.4303
     26 C         139.6170  147.0809  156.1860 C.2     1  UNL1        0.4053
     27 O         138.8696  148.1823  155.4942 O.2     1  UNL1       -0.2262
     28 C         141.2557  140.6664  170.9591 C.3     1  UNL1        0.1828
     29 O         142.3000  140.6451  172.0355 O.3     1  UNL1       -0.3785
     30 H         142.6846  139.7566  172.0954 H       1  UNL1        0.2106
@<TRIPOS>BOND
     1    21    22    1
     2    22    23    1
     3    23    24    1
     4    24    15    1
     5    15    16   ar
     6    16    17   ar
     7    17    18   ar
     8    18     1    1
     9     1     2   ar
    10     2     3   ar
    11     3     4   ar
    12     4     5   ar
    13     5     6   ar
    14     5     7    1
    15     7     8    1
    16     9     8    1
    17     9    10    1
    18    10    28    1
    19    28    29    1
    20    10    11    1
    21    11    12    1
    22    12    13    2
    23    12    14   am
    24    18    19   ar
    25    19    20   ar
    26    24    25    1
    27    25    26    1
    28    26    27    2
    29    26    22   am
    30    20    15   ar
    31     6     1   ar
    32    14     9    1
    33    14     4    1
    34    29    30    1
@<TRIPOS>MOLECULE
*****
 30 34 0 0 0
SMALL
GASTEIGER

@<TRIPOS>ATOM
      1 C         139.0014  140.9791  163.1667 C.ar    1  UNL1        0.0046
      2 C         138.1354  140.2003  164.1119 C.ar    1  UNL1        0.0015
      3 C         138.4916  140.1258  165.5670 C.ar    1  UNL1        0.0181
      4 C         139.7138  140.8301  166.0770 C.ar    1  UNL1        0.0910
      5 C         140.5798  141.6090  165.1319 C.ar    1  UNL1        0.1522
      6 C         140.2236  141.6835  163.6767 C.ar    1  UNL1        0.0382
      7 O         141.8020  142.3133  165.6419 O.3     1  UNL1       -0.4723
      8 C         142.1582  142.2388  167.0970 C.3     1  UNL1        0.2293
      9 C         141.2921  141.4600  168.0423 C.3     1  UNL1        0.1691
     10 C         141.3899  141.2090  169.5179 C.3     1  UNL1        0.2216
     11 O         140.2281  140.3496  169.9198 O.3     1  UNL1       -0.4336
     12 C         139.4123  140.0694  168.6927 C.2     1  UNL1        0.4089
     13 O         138.1590  139.2473  168.6359 O.2     1  UNL1       -0.2258
     14 N         140.0699  140.7556  167.5323 N.am    1  UNL1       -0.2164
     15 C         137.9329  141.2027  158.8011 C.ar    1  UNL1        0.1005
     16 C         138.4976  142.4053  159.4976 C.ar    1  UNL1        0.0184
     17 C         138.8537  142.3307  160.9528 C.ar    1  UNL1        0.0029
     18 C         138.6452  141.0536  161.7115 C.ar    1  UNL1        0.0193
     19 C         138.0805  139.8511  161.0150 C.ar    1  UNL1        0.0985
     20 N         137.7243  139.9257  159.5598 N.ar    1  UNL1       -0.2446
     21 C         136.8214  143.0808  153.9929 C.3     1  UNL1        0.1184
     22 N         137.0658  142.1406  155.1358 N.am    1  UNL1       -0.2401
     23 C         137.4275  142.5322  156.5379 C.3     1  UNL1        0.1466
     24 C         137.5767  141.2773  157.3459 C.3     1  UNL1        0.2298
     25 O         137.3072  140.1100  156.4432 O.3     1  UNL1       -0.4303
     26 C         136.9915  140.6435  155.0773 C.2     1  UNL1        0.4053
     27 O         136.6596  139.8239  153.8657 O.2     1  UNL1       -0.2262
     28 C         142.4613  141.7267  170.4312 C.3     1  UNL1        0.1828
     29 O         142.1091  142.1898  171.8137 O.3     1  UNL1       -0.3785
     30 H         141.5486  142.9794  171.7572 H       1  UNL1        0.2106
@<TRIPOS>BOND
     1    21    22    1
     2    22    23    1
     3    23    24    1
     4    24    15    1
     5    15    16   ar
     6    16    17   ar
     7    17    18   ar
     8    18     1    1
     9     1     2   ar
    10     2     3   ar
    11     3     4   ar
    12     4     5   ar
    13     5     6   ar
    14     5     7    1
    15     7     8    1
    16     9     8    1
    17     9    10    1
    18    10    28    1
    19    28    29    1
    20    10    11    1
    21    11    12    1
    22    12    13    2
    23    12    14   am
    24    18    19   ar
    25    19    20   ar
    26    24    25    1
    27    25    26    1
    28    26    27    2
    29    26    22   am
    30    20    15   ar
    31     6     1   ar
    32    14     9    1
    33    14     4    1
    34    29    30    1
@<TRIPOS>MOLECULE
*****
 30 34 0 0 0
SMALL
GASTEIGER

@<TRIPOS>ATOM
      1 C         139.6795  142.6160  162.5188 C.ar    1  UNL1        0.0046
      2 C         138.8047  141.4081  162.6793 C.ar    1  UNL1        0.0015
      3 C         138.6710  140.7521  164.0216 C.ar    1  UNL1        0.0181
      4 C         139.4120  141.3039  165.2033 C.ar    1  UNL1        0.0910
      5 C         140.2868  142.5117  165.0427 C.ar    1  UNL1        0.1522
      6 C         140.4205  143.1678  163.7005 C.ar    1  UNL1        0.0382
      7 O         141.0278  143.0635  166.2244 O.3     1  UNL1       -0.4723
      8 C         140.8940  142.4075  167.5667 C.3     1  UNL1        0.2293
      9 C         140.0192  141.1996  167.7273 C.3     1  UNL1        0.1691
     10 C         139.6944  140.3466  168.9176 C.3     1  UNL1        0.2216
     11 O         138.7527  139.2676  168.4716 O.3     1  UNL1       -0.4336
     12 C         138.4955  139.4537  167.0056 C.2     1  UNL1        0.4089
     13 O         137.6108  138.5964  166.1499 O.2     1  UNL1       -0.2258
     14 N         139.2782  140.6477  166.5456 N.am    1  UNL1       -0.2164
     15 C         140.0808  144.5843  158.4920 C.ar    1  UNL1        0.1005
     16 C         139.3913  143.2576  158.6130 C.ar    1  UNL1        0.0184
     17 C         139.2575  142.6016  159.9552 C.ar    1  UNL1        0.0029
     18 C         139.8133  143.2721  161.1765 C.ar    1  UNL1        0.0193
     19 C         140.5028  144.5987  161.0555 C.ar    1  UNL1        0.0985
     20 N         140.6366  145.2548  159.7132 N.ar    1  UNL1       -0.2446
     21 C         139.8175  148.1268  154.5853 C.3     1  UNL1        0.1184
     22 N         140.0935  146.8687  155.3540 N.am    1  UNL1       -0.2401
     23 C         139.7643  146.6271  156.7974 C.3     1  UNL1        0.1466
     24 C         140.2146  145.2404  157.1497 C.3     1  UNL1        0.2298
     25 O         140.8221  144.6248  155.9242 O.3     1  UNL1       -0.4303
     26 C         140.7473  145.6312  154.8144 C.2     1  UNL1        0.4053
     27 O         141.2397  145.4345  153.4112 O.2     1  UNL1       -0.2262
     28 C         140.2193  140.5388  170.3096 C.3     1  UNL1        0.1828
     29 O         139.9048  139.5314  171.3755 O.3     1  UNL1       -0.3785
     30 H         138.9522  139.5410  171.5585 H       1  UNL1        0.2106
@<TRIPOS>BOND
     1    21    22    1
     2    22    23    1
     3    23    24    1
     4    24    15    1
     5    15    16   ar
     6    16    17   ar
     7    17    18   ar
     8    18     1    1
     9     1     2   ar
    10     2     3   ar
    11     3     4   ar
    12     4     5   ar
    13     5     6   ar
    14     5     7    1
    15     7     8    1
    16     9     8    1
    17     9    10    1
    18    10    28    1
    19    28    29    1
    20    10    11    1
    21    11    12    1
    22    12    13    2
    23    12    14   am
    24    18    19   ar
    25    19    20   ar
    26    24    25    1
    27    25    26    1
    28    26    27    2
    29    26    22   am
    30    20    15   ar
    31     6     1   ar
    32    14     9    1
    33    14     4    1
    34    29    30    1
@<TRIPOS>MOLECULE
*****
 30 34 0 0 0
SMALL
GASTEIGER

@<TRIPOS>ATOM
      1 C         140.8531  143.4633  163.5302 C.ar    1  UNL1        0.0046
      2 C         140.2190  144.1951  164.6758 C.ar    1  UNL1        0.0015
      3 C         140.3455  143.6582  166.0707 C.ar    1  UNL1        0.0181
      4 C         141.1059  142.3895  166.3199 C.ar    1  UNL1        0.0910
      5 C         141.7400  141.6577  165.1743 C.ar    1  UNL1        0.1522
      6 C         141.6135  142.1946  163.7794 C.ar    1  UNL1        0.0382
      7 O         142.5004  140.3890  165.4236 O.3     1  UNL1       -0.4723
      8 C         142.6269  139.8521  166.8184 C.3     1  UNL1        0.2293
      9 C         141.9928  140.5839  167.9641 C.3     1  UNL1        0.1691
     10 C         141.9491  140.2989  169.4362 C.3     1  UNL1        0.2216
     11 O         141.1616  141.3914  170.0966 O.3     1  UNL1       -0.4336
     12 C         140.7187  142.3517  169.0329 C.2     1  UNL1        0.4089
     13 O         139.9049  143.5930  169.2490 O.2     1  UNL1       -0.2258
     14 N         141.2324  141.8526  167.7149 N.am    1  UNL1       -0.2164
     15 C         140.4738  145.0739  159.3454 C.ar    1  UNL1        0.1005
     16 C         141.2439  143.8113  159.5962 C.ar    1  UNL1        0.0184
     17 C         141.3703  143.2745  160.9911 C.ar    1  UNL1        0.0029
     18 C         140.7266  144.0002  162.1352 C.ar    1  UNL1        0.0193
     19 C         139.9566  145.2628  161.8845 C.ar    1  UNL1        0.0985
     20 N         139.8302  145.7997  160.4895 N.ar    1  UNL1       -0.2446
     21 C         141.1500  145.7826  154.1568 C.3     1  UNL1        0.1184
     22 N         140.6582  145.9365  155.5655 N.am    1  UNL1       -0.2401
     23 C         141.0907  145.1167  156.7449 C.3     1  UNL1        0.1466
     24 C         140.3474  145.6108  157.9505 C.3     1  UNL1        0.2298
     25 O         139.4556  146.7359  157.5162 O.3     1  UNL1       -0.4303
     26 C         139.6476  146.9373  156.0423 C.2     1  UNL1        0.4053
     27 O         138.9514  147.9598  155.1940 O.2     1  UNL1       -0.2262
     28 C         142.5818  139.1271  170.1265 C.3     1  UNL1        0.1828
     29 O         143.6374  139.3508  171.1684 O.3     1  UNL1       -0.3785
     30 H         144.4238  139.7389  170.7538 H       1  UNL1        0.2106
@<TRIPOS>BOND
     1    21    22    1
     2    22    23    1
     3    23    24    1
     4    24    15    1
     5    15    16   ar
     6    16    17   ar
     7    17    18   ar
     8    18     1    1
     9     1     2   ar
    10     2     3   ar
    11     3     4   ar
    12     4     5   ar
    13     5     6   ar
    14     5     7    1
    15     7     8    1
    16     9     8    1
    17     9    10    1
    18    10    28    1
    19    28    29    1
    20    10    11    1
    21    11    12    1
    22    12    13    2
    23    12    14   am
    24    18    19   ar
    25    19    20   ar
    26    24    25    1
    27    25    26    1
    28    26    27    2
    29    26    22   am
    30    20    15   ar
    31     6     1   ar
    32    14     9    1
    33    14     4    1
    34    29    30    1
@<TRIPOS>MOLECULE
*****
 30 34 0 0 0
SMALL
GASTEIGER

@<TRIPOS>ATOM
      1 C         142.0408  139.2546  163.7226 C.ar    1  UNL1        0.0046
      2 C         142.6784  138.4576  164.8218 C.ar    1  UNL1        0.0015
      3 C         142.5138  138.8845  166.2503 C.ar    1  UNL1        0.0181
      4 C         141.7116  140.1085  166.5796 C.ar    1  UNL1        0.0910
      5 C         141.0740  140.9055  165.4804 C.ar    1  UNL1        0.1522
      6 C         141.2386  140.4785  164.0519 C.ar    1  UNL1        0.0382
      7 O         140.2719  142.1295  165.8097 O.3     1  UNL1       -0.4723
      8 C         140.1073  142.5565  167.2381 C.3     1  UNL1        0.2293
      9 C         140.7449  141.7595  168.3374 C.3     1  UNL1        0.1691
     10 C         140.7568  141.9345  169.8271 C.3     1  UNL1        0.2216
     11 O         141.5663  140.8187  170.4184 O.3     1  UNL1       -0.4336
     12 C         142.0547  139.9541  169.2943 C.2     1  UNL1        0.4089
     13 O         142.9020  138.7240  169.4321 O.2     1  UNL1       -0.2258
     14 N         141.5471  140.5355  168.0081 N.am    1  UNL1       -0.2164
     15 C         142.5343  137.9737  159.4370 C.ar    1  UNL1        0.1005
     16 C         141.3447  138.7923  159.8429 C.ar    1  UNL1        0.0184
     17 C         141.1802  139.2192  161.2714 C.ar    1  UNL1        0.0029
     18 C         142.2053  138.8276  162.2941 C.ar    1  UNL1        0.0193
     19 C         143.3949  138.0090  161.8882 C.ar    1  UNL1        0.0985
     20 N         143.5594  137.5821  160.4597 N.ar    1  UNL1       -0.2446
     21 C         142.7206  138.0562  154.1607 C.3     1  UNL1        0.1184
     22 N         142.7844  137.5847  155.5833 N.am    1  UNL1       -0.2401
     23 C         142.5245  138.4202  156.8016 C.3     1  UNL1        0.1466
     24 C         142.6988  137.5468  158.0085 C.3     1  UNL1        0.2298
     25 O         143.0666  136.1714  157.5361 O.3     1  UNL1       -0.4303
     26 C         143.1195  136.1949  156.0373 C.2     1  UNL1        0.4053
     27 O         143.4495  135.0325  155.1484 O.2     1  UNL1       -0.2262
     28 C         140.0783  143.0325  170.5912 C.3     1  UNL1        0.1828
     29 O         140.2313  144.4582  170.1507 O.3     1  UNL1       -0.3785
     30 H         141.1555  144.7325  170.2585 H       1  UNL1        0.2106
@<TRIPOS>BOND
     1    21    22    1
     2    22    23    1
     3    23    24    1
     4    24    15    1
     5    15    16   ar
     6    16    17   ar
     7    17    18   ar
     8    18     1    1
     9     1     2   ar
    10     2     3   ar
    11     3     4   ar
    12     4     5   ar
    13     5     6   ar
    14     5     7    1
    15     7     8    1
    16     9     8    1
    17     9    10    1
    18    10    28    1
    19    28    29    1
    20    10    11    1
    21    11    12    1
    22    12    13    2
    23    12    14   am
    24    18    19   ar
    25    19    20   ar
    26    24    25    1
    27    25    26    1
    28    26    27    2
    29    26    22   am
    30    20    15   ar
    31     6     1   ar
    32    14     9    1
    33    14     4    1
    34    29    30    1
@<TRIPOS>MOLECULE
*****
 30 34 0 0 0
SMALL
GASTEIGER

@<TRIPOS>ATOM
      1 C         140.2180  141.1735  163.1711 C.ar    1  UNL1        0.0046
      2 C         141.2123  140.0613  163.3271 C.ar    1  UNL1        0.0015
      3 C         141.7714  139.7396  164.6813 C.ar    1  UNL1        0.0181
      4 C         141.3363  140.5301  165.8795 C.ar    1  UNL1        0.0910
      5 C         140.3420  141.6423  165.7235 C.ar    1  UNL1        0.1522
      6 C         139.7829  141.9640  164.3693 C.ar    1  UNL1        0.0382
      7 O         139.9069  142.4329  166.9217 O.3     1  UNL1       -0.4723
      8 C         140.4660  142.1112  168.2759 C.3     1  UNL1        0.2293
      9 C         141.4604  140.9990  168.4319 C.3     1  UNL1        0.1691
     10 C         142.1789  140.4559  169.6314 C.3     1  UNL1        0.2216
     11 O         143.0581  139.3298  169.1745 O.3     1  UNL1       -0.4336
     12 C         142.8830  139.1768  167.6927 C.2     1  UNL1        0.4089
     13 O         143.5739  138.1691  166.8226 O.2     1  UNL1       -0.2258
     14 N         141.8955  140.2084  167.2337 N.am    1  UNL1       -0.2164
     15 C         138.5405  142.1385  159.1085 C.ar    1  UNL1        0.1005
     16 C         139.2106  140.8182  159.3490 C.ar    1  UNL1        0.0184
     17 C         139.7697  140.4965  160.7031 C.ar    1  UNL1        0.0029
     18 C         139.6588  141.4952  161.8169 C.ar    1  UNL1        0.0193
     19 C         138.9887  142.8154  161.5765 C.ar    1  UNL1        0.0985
     20 N         138.4295  143.1371  160.2223 N.ar    1  UNL1       -0.2446
     21 C         135.7994  141.8348  154.6057 C.3     1  UNL1        0.1184
     22 N         136.7214  142.3205  155.6846 N.am    1  UNL1       -0.2401
     23 C         137.0063  141.6224  156.9813 C.3     1  UNL1        0.1466
     24 C         137.9813  142.4602  157.7543 C.3     1  UNL1        0.2298
     25 O         138.2990  143.6761  156.9354 O.3     1  UNL1       -0.4303
     26 C         137.5203  143.5898  155.6562 C.2     1  UNL1        0.4053
     27 O         137.5376  144.5961  154.5440 O.2     1  UNL1       -0.2262
     28 C         142.0422  140.9519  171.0404 C.3     1  UNL1        0.1828
     29 O         140.8170  140.6164  171.8381 O.3     1  UNL1       -0.3785
     30 H         140.0440  141.0456  171.4392 H       1  UNL1        0.2106
@<TRIPOS>BOND
     1    21    22    1
     2    22    23    1
     3    23    24    1
     4    24    15    1
     5    15    16   ar
     6    16    17   ar
     7    17    18   ar
     8    18     1    1
     9     1     2   ar
    10     2     3   ar
    11     3     4   ar
    12     4     5   ar
    13     5     6   ar
    14     5     7    1
    15     7     8    1
    16     9     8    1
    17     9    10    1
    18    10    28    1
    19    28    29    1
    20    10    11    1
    21    11    12    1
    22    12    13    2
    23    12    14   am
    24    18    19   ar
    25    19    20   ar
    26    24    25    1
    27    25    26    1
    28    26    27    2
    29    26    22   am
    30    20    15   ar
    31     6     1   ar
    32    14     9    1
    33    14     4    1
    34    29    30    1
@<TRIPOS>MOLECULE
*****
 30 34 0 0 0
SMALL
GASTEIGER

@<TRIPOS>ATOM
      1 C         139.9757  139.3887  161.4660 C.ar    1  UNL1        0.0046
      2 C         138.8269  139.7689  160.5796 C.ar    1  UNL1        0.0015
      3 C         138.8950  139.4976  159.1060 C.ar    1  UNL1        0.0181
      4 C         140.1119  138.8461  158.5187 C.ar    1  UNL1        0.0910
      5 C         141.2607  138.4660  159.4051 C.ar    1  UNL1        0.1522
      6 C         141.1926  138.7373  160.8788 C.ar    1  UNL1        0.0382
      7 O         142.4775  137.8145  158.8179 O.3     1  UNL1       -0.4723
      8 C         142.5456  137.5432  157.3443 C.3     1  UNL1        0.2293
      9 C         141.3968  137.9234  156.4577 C.3     1  UNL1        0.1691
     10 C         141.1794  137.7818  154.9803 C.3     1  UNL1        0.2216
     11 O         139.8283  138.3458  154.6545 O.3     1  UNL1       -0.4336
     12 C         139.2106  138.8359  155.9305 C.2     1  UNL1        0.4089
     13 O         137.8604  139.4749  156.0679 O.2     1  UNL1       -0.2258
     14 N         140.1800  138.5748  157.0450 N.am    1  UNL1       -0.2164
     15 C         139.7715  140.2026  165.8872 C.ar    1  UNL1        0.1005
     16 C         138.5434  140.3539  165.0392 C.ar    1  UNL1        0.0184
     17 C         138.6115  140.0826  163.5655 C.ar    1  UNL1        0.0029
     18 C         139.9076  139.6600  162.9398 C.ar    1  UNL1        0.0193
     19 C         141.1356  139.5088  163.7877 C.ar    1  UNL1        0.0985
     20 N         141.0676  139.7801  165.2615 N.ar    1  UNL1       -0.2446
     21 C         140.2305  142.5717  170.5837 C.3     1  UNL1        0.1184
     22 N         139.9144  141.5629  169.5196 N.am    1  UNL1       -0.2401
     23 C         140.1743  141.7199  168.0507 C.3     1  UNL1        0.1466
     24 C         139.7033  140.4739  167.3608 C.3     1  UNL1        0.2298
     25 O         139.1523  139.5469  168.4034 O.3     1  UNL1       -0.4303
     26 C         139.2827  140.2199  169.7376 C.2     1  UNL1        0.4053
     27 O         138.8563  139.6500  171.0580 O.2     1  UNL1       -0.2262
     28 C         142.1440  137.1817  154.0008 C.3     1  UNL1        0.1828
     29 O         143.5317  137.7376  153.8781 O.3     1  UNL1       -0.3785
     30 H         143.4882  138.6419  153.5298 H       1  UNL1        0.2106
@<TRIPOS>BOND
     1    21    22    1
     2    22    23    1
     3    23    24    1
     4    24    15    1
     5    15    16   ar
     6    16    17   ar
     7    17    18   ar
     8    18     1    1
     9     1     2   ar
    10     2     3   ar
    11     3     4   ar
    12     4     5   ar
    13     5     6   ar
    14     5     7    1
    15     7     8    1
    16     9     8    1
    17     9    10    1
    18    10    28    1
    19    28    29    1
    20    10    11    1
    21    11    12    1
    22    12    13    2
    23    12    14   am
    24    18    19   ar
    25    19    20   ar
    26    24    25    1
    27    25    26    1
    28    26    27    2
    29    26    22   am
    30    20    15   ar
    31     6     1   ar
    32    14     9    1
    33    14     4    1
    34    29    30    1
