@<TRIPOS>MOLECULE
*****
 32 36 0 0 0
SMALL
GASTEIGER

@<TRIPOS>ATOM
      1 C         140.3214  141.5398  164.8473 C.ar    1  UNL1        0.2398
      2 N         140.0966  141.5893  166.3295 N.ar    1  UNL1       -0.1961
      3 C         141.2395  141.8945  167.2517 C.ar    1  UNL1        0.1361
      4 C         142.6074  142.1503  166.6918 C.ar    1  UNL1        0.0508
      5 C         142.8323  142.1009  165.2096 C.ar    1  UNL1        0.0845
      6 N         141.6894  141.7956  164.2873 N.ar    1  UNL1       -0.2137
      7 C         137.8910  141.9988  163.8336 C.ar    1  UNL1        0.2041
      8 N         137.0393  141.3480  162.7844 N.ar    1  UNL1       -0.2134
      9 C         137.8004  140.1816  162.2272 C.ar    1  UNL1        0.1003
     10 C         137.4603  139.1743  161.1691 C.ar    1  UNL1        0.0207
     11 C         138.4423  138.0970  160.8160 C.ar    1  UNL1        0.0016
     12 C         139.7645  138.0269  161.5210 C.ar    1  UNL1        0.0016
     13 C         140.1046  139.0341  162.5791 C.ar    1  UNL1        0.0192
     14 C         139.1225  140.1115  162.9322 C.ar    1  UNL1        0.0869
     15 N         139.1785  141.2346  163.9250 N.ar    1  UNL1       -0.2480
     16 C         138.2753  144.4869  164.4752 C.3     1  UNL1        0.1108
     17 N         137.5204  143.2024  164.6485 N.pl3   1  UNL1       -0.3023
     18 H         136.7816  143.1493  165.2970 H       1  UNL1        0.1497
     19 N         141.0146  141.9440  168.7339 N.pl3   1  UNL1       -0.2897
     20 C         140.2873  143.1054  169.3439 C.3     1  UNL1        0.1242
     21 C         140.0624  143.1549  170.8261 C.3     1  UNL1        0.1636
     22 O         140.5647  142.0428  171.6984 O.3     1  UNL1       -0.3502
     23 C         141.2920  140.8814  171.0885 C.3     1  UNL1        0.1618
     24 C         141.5169  140.8319  169.6063 C.3     1  UNL1        0.1038
     25 C         142.2442  139.6704  168.9964 C.3     1  UNL1        0.0241
     26 C         144.2001  142.3567  164.6496 C.3     1  UNL1        0.1457
     27 C         145.5787  142.0925  164.1206 C.3     1  UNL1        0.0297
     28 C         144.7060  140.9485  164.5445 C.3     1  UNL1        0.0297
     29 S         144.1692  143.8536  164.5601 S.O2    1  UNL1       -0.0065
     30 C         144.1384  145.3506  164.4707 C.3     1  UNL1        0.1764
     31 O         144.8353  143.9475  165.9008 O.2     1  UNL1       -0.1727
     32 O         143.5031  143.7598  163.2194 O.2     1  UNL1       -0.1727
@<TRIPOS>BOND
     1    16    17    1
     2    17     7    1
     3     7     8   ar
     4     8     9   ar
     5     9    10   ar
     6    10    11   ar
     7    11    12   ar
     8    12    13   ar
     9    13    14   ar
    10    14    15   ar
    11    15     1    1
    12     1     2   ar
    13     2     3   ar
    14     3    19    1
    15    19    20    1
    16    20    21    1
    17    21    22    1
    18    22    23    1
    19    23    24    1
    20    24    25    1
    21     3     4   ar
    22     4     5   ar
    23     5    26    1
    24    26    29    1
    25    29    30    1
    26    29    31    2
    27    29    32    2
    28    26    27    1
    29    27    28    1
    30     5     6   ar
    31    15     7   ar
    32     6     1   ar
    33    14     9   ar
    34    24    19    1
    35    28    26    1
    36    17    18    1
@<TRIPOS>MOLECULE
*****
 32 36 0 0 0
SMALL
GASTEIGER

@<TRIPOS>ATOM
      1 C         140.4075  141.1825  164.7471 C.ar    1  UNL1        0.2398
      2 N         139.8262  140.6230  163.4827 N.ar    1  UNL1       -0.1961
      3 C         140.2972  141.1302  162.1519 C.ar    1  UNL1        0.1361
      4 C         141.3495  142.1971  162.0857 C.ar    1  UNL1        0.0508
      5 C         141.9308  142.7568  163.3501 C.ar    1  UNL1        0.0845
      6 N         141.4598  142.2495  164.6809 N.ar    1  UNL1       -0.2137
      7 C         139.2861  139.3485  166.3357 C.ar    1  UNL1        0.2041
      8 N         138.9809  139.2590  167.8016 N.ar    1  UNL1       -0.2134
      9 C         139.4428  140.5304  168.4497 C.ar    1  UNL1        0.1003
     10 C         139.4018  141.0042  169.8723 C.ar    1  UNL1        0.0207
     11 C         139.9515  142.3534  170.2296 C.ar    1  UNL1        0.0016
     12 C         140.5421  143.2287  169.1642 C.ar    1  UNL1        0.0016
     13 C         140.5831  142.7549  167.7416 C.ar    1  UNL1        0.0192
     14 C         140.0334  141.4058  167.3844 C.ar    1  UNL1        0.0869
     15 N         139.9365  140.6753  166.0779 N.ar    1  UNL1       -0.2480
     16 C         140.0986  137.4279  164.7862 C.3     1  UNL1        0.1108
     17 N         138.9923  138.2960  165.3081 N.pl3   1  UNL1       -0.3023
     18 H         138.0734  138.1749  164.9762 H       1  UNL1        0.1497
     19 N         139.7159  140.5706  160.8875 N.pl3   1  UNL1       -0.2897
     20 C         138.6281  141.3128  160.1694 C.3     1  UNL1        0.1242
     21 C         138.0467  140.7531  158.9049 C.3     1  UNL1        0.1636
     22 O         138.5533  139.4512  158.3585 O.3     1  UNL1       -0.3502
     23 C         139.6412  138.7091  159.0766 C.3     1  UNL1        0.1618
     24 C         140.2225  139.2687  160.3411 C.3     1  UNL1        0.1038
     25 C         141.3103  138.5265  161.0591 C.3     1  UNL1        0.0241
     26 C         142.9830  143.8237  163.2839 C.3     1  UNL1        0.1457
     27 C         143.6640  145.1458  163.4794 C.3     1  UNL1        0.0297
     28 C         142.2796  144.9290  164.0143 C.3     1  UNL1        0.0297
     29 S         144.0519  143.0890  162.5306 S.O2    1  UNL1       -0.0065
     30 C         145.1209  142.3543  161.7772 C.3     1  UNL1        0.1764
     31 O         143.6543  143.8011  161.2717 O.2     1  UNL1       -0.1727
     32 O         144.4497  142.3769  163.7895 O.2     1  UNL1       -0.1727
@<TRIPOS>BOND
     1    16    17    1
     2    17     7    1
     3     7     8   ar
     4     8     9   ar
     5     9    10   ar
     6    10    11   ar
     7    11    12   ar
     8    12    13   ar
     9    13    14   ar
    10    14    15   ar
    11    15     1    1
    12     1     2   ar
    13     2     3   ar
    14     3    19    1
    15    19    20    1
    16    20    21    1
    17    21    22    1
    18    22    23    1
    19    23    24    1
    20    24    25    1
    21     3     4   ar
    22     4     5   ar
    23     5    26    1
    24    26    29    1
    25    29    30    1
    26    29    31    2
    27    29    32    2
    28    26    27    1
    29    27    28    1
    30     5     6   ar
    31    15     7   ar
    32     6     1   ar
    33    14     9   ar
    34    24    19    1
    35    28    26    1
    36    17    18    1
@<TRIPOS>MOLECULE
*****
 32 36 0 0 0
SMALL
GASTEIGER

@<TRIPOS>ATOM
      1 C         140.1689  142.2341  164.2844 C.ar    1  UNL1        0.2398
      2 N         140.4396  142.5687  165.7213 N.ar    1  UNL1       -0.1961
      3 C         140.7821  141.4791  166.6935 C.ar    1  UNL1        0.1361
      4 C         140.8541  140.0547  166.2289 C.ar    1  UNL1        0.0508
      5 C         140.5834  139.7199  164.7920 C.ar    1  UNL1        0.0845
      6 N         140.2409  140.8096  163.8197 N.ar    1  UNL1       -0.2137
      7 C         138.7069  144.3120  163.4539 C.ar    1  UNL1        0.2041
      8 N         138.7318  145.2154  162.2568 N.ar    1  UNL1       -0.2134
      9 C         139.8667  144.7856  161.3751 C.ar    1  UNL1        0.1003
     10 C         140.3715  145.3077  160.0627 C.ar    1  UNL1        0.0207
     11 C         141.5528  144.6607  159.4026 C.ar    1  UNL1        0.0016
     12 C         142.2293  143.4915  160.0548 C.ar    1  UNL1        0.0016
     13 C         141.7245  142.9694  161.3673 C.ar    1  UNL1        0.0192
     14 C         140.5432  143.6164  162.0274 C.ar    1  UNL1        0.0869
     15 N         139.8264  143.3237  163.3121 N.ar    1  UNL1       -0.2480
     16 C         138.0943  145.1322  165.8418 C.3     1  UNL1        0.1108
     17 N         137.7334  144.3841  164.5928 N.pl3   1  UNL1       -0.3023
     18 H         136.8575  143.9404  164.5205 H       1  UNL1        0.1497
     19 N         141.0528  141.8138  168.1304 N.pl3   1  UNL1       -0.2897
     20 C         139.9750  141.6345  169.1582 C.3     1  UNL1        0.1242
     21 C         140.2457  141.9693  170.5951 C.3     1  UNL1        0.1636
     22 O         141.5941  142.4833  171.0043 O.3     1  UNL1       -0.3502
     23 C         142.6719  142.6626  169.9765 C.3     1  UNL1        0.1618
     24 C         142.4012  142.3278  168.5396 C.3     1  UNL1        0.1038
     25 C         143.4790  142.5072  167.5120 C.3     1  UNL1        0.0241
     26 C         140.6553  138.2956  164.3273 C.3     1  UNL1        0.1457
     27 C         141.1370  136.8822  164.1841 C.3     1  UNL1        0.0297
     28 C         141.8600  137.8327  165.0918 C.3     1  UNL1        0.0297
     29 S         139.4757  138.2637  163.4014 S.O2    1  UNL1       -0.0065
     30 C         138.2960  138.2319  162.4755 C.3     1  UNL1        0.1764
     31 O         140.4002  138.3163  162.2215 O.2     1  UNL1       -0.1727
     32 O         138.5510  138.2111  164.5814 O.2     1  UNL1       -0.1727
@<TRIPOS>BOND
     1    16    17    1
     2    17     7    1
     3     7     8   ar
     4     8     9   ar
     5     9    10   ar
     6    10    11   ar
     7    11    12   ar
     8    12    13   ar
     9    13    14   ar
    10    14    15   ar
    11    15     1    1
    12     1     2   ar
    13     2     3   ar
    14     3    19    1
    15    19    20    1
    16    20    21    1
    17    21    22    1
    18    22    23    1
    19    23    24    1
    20    24    25    1
    21     3     4   ar
    22     4     5   ar
    23     5    26    1
    24    26    29    1
    25    29    30    1
    26    29    31    2
    27    29    32    2
    28    26    27    1
    29    27    28    1
    30     5     6   ar
    31    15     7   ar
    32     6     1   ar
    33    14     9   ar
    34    24    19    1
    35    28    26    1
    36    17    18    1
@<TRIPOS>MOLECULE
*****
 32 36 0 0 0
SMALL
GASTEIGER

@<TRIPOS>ATOM
      1 C         140.7104  140.7907  164.9427 C.ar    1  UNL1        0.2398
      2 N         139.9086  140.8005  163.6751 N.ar    1  UNL1       -0.1961
      3 C         140.5662  141.1553  162.3744 C.ar    1  UNL1        0.1361
      4 C         142.0256  141.5003  162.3414 C.ar    1  UNL1        0.0508
      5 C         142.8274  141.4905  163.6091 C.ar    1  UNL1        0.0845
      6 N         142.1698  141.1357  164.9097 N.ar    1  UNL1       -0.2137
      7 C         139.1419  139.2680  166.4811 C.ar    1  UNL1        0.2041
      8 N         138.7169  139.2971  167.9193 N.ar    1  UNL1       -0.2134
      9 C         139.3650  140.4828  168.5705 C.ar    1  UNL1        0.1003
     10 C         139.3100  141.0126  169.9727 C.ar    1  UNL1        0.0207
     11 C         140.0807  142.2461  170.3391 C.ar    1  UNL1        0.0016
     12 C         140.9064  142.9499  169.3033 C.ar    1  UNL1        0.0016
     13 C         140.9613  142.4202  167.9011 C.ar    1  UNL1        0.0192
     14 C         140.1907  141.1866  167.5346 C.ar    1  UNL1        0.0869
     15 N         140.0528  140.4359  166.2434 N.ar    1  UNL1       -0.2480
     16 C         139.7605  137.3721  164.8160 C.3     1  UNL1        0.1108
     17 N         138.7287  138.2500  165.4600 N.pl3   1  UNL1       -0.3023
     18 H         137.7803  138.1579  165.2124 H       1  UNL1        0.1497
     19 N         139.7644  141.1650  161.1068 N.pl3   1  UNL1       -0.2897
     20 C         139.2651  142.4632  160.5450 C.3     1  UNL1        0.1242
     21 C         138.4633  142.4729  159.2774 C.3     1  UNL1        0.1636
     22 O         138.1607  141.1845  158.5714 O.3     1  UNL1       -0.3502
     23 C         138.6600  139.8864  159.1331 C.3     1  UNL1        0.1618
     24 C         139.4618  139.8766  160.4007 C.3     1  UNL1        0.1038
     25 C         139.9610  138.5784  160.9624 C.3     1  UNL1        0.0241
     26 C         144.2868  141.8355  163.5761 C.3     1  UNL1        0.1457
     27 C         145.7754  141.6755  163.6681 C.3     1  UNL1        0.0297
     28 C         144.8777  140.5014  163.9241 C.3     1  UNL1        0.0297
     29 S         144.2028  143.2893  163.2168 S.O2    1  UNL1       -0.0065
     30 C         144.1188  144.7432  162.8575 C.3     1  UNL1        0.1764
     31 O         143.8195  143.6165  164.6296 O.2     1  UNL1       -0.1727
     32 O         144.5861  142.9623  161.8039 O.2     1  UNL1       -0.1727
@<TRIPOS>BOND
     1    16    17    1
     2    17     7    1
     3     7     8   ar
     4     8     9   ar
     5     9    10   ar
     6    10    11   ar
     7    11    12   ar
     8    12    13   ar
     9    13    14   ar
    10    14    15   ar
    11    15     1    1
    12     1     2   ar
    13     2     3   ar
    14     3    19    1
    15    19    20    1
    16    20    21    1
    17    21    22    1
    18    22    23    1
    19    23    24    1
    20    24    25    1
    21     3     4   ar
    22     4     5   ar
    23     5    26    1
    24    26    29    1
    25    29    30    1
    26    29    31    2
    27    29    32    2
    28    26    27    1
    29    27    28    1
    30     5     6   ar
    31    15     7   ar
    32     6     1   ar
    33    14     9   ar
    34    24    19    1
    35    28    26    1
    36    17    18    1
@<TRIPOS>MOLECULE
*****
 32 36 0 0 0
SMALL
GASTEIGER

@<TRIPOS>ATOM
      1 C         140.6888  140.6150  164.6607 C.ar    1  UNL1        0.2398
      2 N         140.3886  140.8577  166.1101 N.ar    1  UNL1       -0.1961
      3 C         141.4092  141.5211  166.9866 C.ar    1  UNL1        0.1361
      4 C         142.7301  141.9417  166.4138 C.ar    1  UNL1        0.0508
      5 C         143.0304  141.6989  164.9643 C.ar    1  UNL1        0.0845
      6 N         142.0098  141.0356  164.0878 N.ar    1  UNL1       -0.2137
      7 C         138.8441  138.7509  164.1435 C.ar    1  UNL1        0.2041
      8 N         137.9591  138.4298  162.9758 N.ar    1  UNL1       -0.2134
      9 C         138.2362  139.4321  161.8947 C.ar    1  UNL1        0.1003
     10 C         137.6631  139.6098  160.5200 C.ar    1  UNL1        0.0207
     11 C         138.1463  140.7281  159.6448 C.ar    1  UNL1        0.0016
     12 C         139.2026  141.6686  160.1444 C.ar    1  UNL1        0.0016
     13 C         139.7757  141.4909  161.5192 C.ar    1  UNL1        0.0192
     14 C         139.2925  140.3727  162.3943 C.ar    1  UNL1        0.0869
     15 N         139.6682  139.9516  163.7841 N.ar    1  UNL1       -0.2480
     16 C         137.9162  138.3229  166.5322 C.3     1  UNL1        0.1108
     17 N         138.8960  138.0026  165.4425 N.pl3   1  UNL1       -0.3023
     18 H         139.5731  137.3013  165.5799 H       1  UNL1        0.1497
     19 N         141.1089  141.7638  168.4361 N.pl3   1  UNL1       -0.2897
     20 C         140.4074  143.0212  168.8564 C.3     1  UNL1        0.1242
     21 C         140.1070  143.2640  170.3058 C.3     1  UNL1        0.1636
     22 O         140.5082  142.2492  171.3350 O.3     1  UNL1       -0.3502
     23 C         141.2097  140.9918  170.9147 C.3     1  UNL1        0.1618
     24 C         141.5101  140.7490  169.4653 C.3     1  UNL1        0.1038
     25 C         142.2116  139.4916  169.0451 C.3     1  UNL1        0.0241
     26 C         144.3513  142.1195  164.3914 C.3     1  UNL1        0.1457
     27 C         145.7508  142.0266  163.8595 C.3     1  UNL1        0.0297
     28 C         145.0363  140.7874  164.3108 C.3     1  UNL1        0.0297
     29 S         144.1252  143.5975  164.2729 S.O2    1  UNL1       -0.0065
     30 C         143.8991  145.0757  164.1545 C.3     1  UNL1        0.1764
     31 O         144.8119  143.8082  165.5897 O.2     1  UNL1       -0.1727
     32 O         143.4385  143.3870  162.9560 O.2     1  UNL1       -0.1727
@<TRIPOS>BOND
     1    16    17    1
     2    17     7    1
     3     7     8   ar
     4     8     9   ar
     5     9    10   ar
     6    10    11   ar
     7    11    12   ar
     8    12    13   ar
     9    13    14   ar
    10    14    15   ar
    11    15     1    1
    12     1     2   ar
    13     2     3   ar
    14     3    19    1
    15    19    20    1
    16    20    21    1
    17    21    22    1
    18    22    23    1
    19    23    24    1
    20    24    25    1
    21     3     4   ar
    22     4     5   ar
    23     5    26    1
    24    26    29    1
    25    29    30    1
    26    29    31    2
    27    29    32    2
    28    26    27    1
    29    27    28    1
    30     5     6   ar
    31    15     7   ar
    32     6     1   ar
    33    14     9   ar
    34    24    19    1
    35    28    26    1
    36    17    18    1
@<TRIPOS>MOLECULE
*****
 32 36 0 0 0
SMALL
GASTEIGER

@<TRIPOS>ATOM
      1 C         140.3412  141.0485  165.1797 C.ar    1  UNL1        0.2398
      2 N         140.9727  140.0433  164.2629 N.ar    1  UNL1       -0.1961
      3 C         141.4301  140.4582  162.8959 C.ar    1  UNL1        0.1361
      4 C         141.2560  141.8784  162.4457 C.ar    1  UNL1        0.0508
      5 C         140.6244  142.8837  163.3625 C.ar    1  UNL1        0.0845
      6 N         140.1670  142.4688  164.7295 N.ar    1  UNL1       -0.2137
      7 C         138.9056  139.5389  166.8546 C.ar    1  UNL1        0.2041
      8 N         138.7415  139.4693  168.3440 N.ar    1  UNL1       -0.2134
      9 C         139.6183  140.5210  168.9566 C.ar    1  UNL1        0.1003
     10 C         139.8651  140.9163  170.3823 C.ar    1  UNL1        0.0207
     11 C         140.8178  142.0313  170.6972 C.ar    1  UNL1        0.0016
     12 C         141.5237  142.7508  169.5864 C.ar    1  UNL1        0.0016
     13 C         141.2770  142.3555  168.1607 C.ar    1  UNL1        0.0192
     14 C         140.3243  141.2405  167.8458 C.ar    1  UNL1        0.0869
     15 N         139.8837  140.6335  166.5467 N.ar    1  UNL1       -0.2480
     16 C         138.8955  137.4379  165.3263 C.3     1  UNL1        0.1108
     17 N         138.2130  138.6669  165.8496 N.pl3   1  UNL1       -0.3023
     18 H         137.3106  138.9012  165.5334 H       1  UNL1        0.1497
     19 N         142.0616  139.4529  161.9791 N.pl3   1  UNL1       -0.2897
     20 C         141.3458  139.0191  160.7344 C.3     1  UNL1        0.1242
     21 C         141.9773  138.0138  159.8177 C.3     1  UNL1        0.1636
     22 O         143.3248  137.4422  160.1455 O.3     1  UNL1       -0.3502
     23 C         144.0407  137.8760  161.3902 C.3     1  UNL1        0.1618
     24 C         143.4092  138.8813  162.3070 C.3     1  UNL1        0.1038
     25 C         144.1251  139.3150  163.5517 C.3     1  UNL1        0.0241
     26 C         140.4503  144.3039  162.9124 C.3     1  UNL1        0.1457
     27 C         140.7929  145.6772  162.4159 C.3     1  UNL1        0.0297
     28 C         141.8777  144.6621  162.6225 C.3     1  UNL1        0.0297
     29 S         138.9624  144.4389  163.0460 S.O2    1  UNL1       -0.0065
     30 C         137.4745  144.5739  163.1796 C.3     1  UNL1        0.1764
     31 O         138.7850  143.8301  161.6867 O.2     1  UNL1       -0.1727
     32 O         139.1397  145.0477  164.4054 O.2     1  UNL1       -0.1727
@<TRIPOS>BOND
     1    16    17    1
     2    17     7    1
     3     7     8   ar
     4     8     9   ar
     5     9    10   ar
     6    10    11   ar
     7    11    12   ar
     8    12    13   ar
     9    13    14   ar
    10    14    15   ar
    11    15     1    1
    12     1     2   ar
    13     2     3   ar
    14     3    19    1
    15    19    20    1
    16    20    21    1
    17    21    22    1
    18    22    23    1
    19    23    24    1
    20    24    25    1
    21     3     4   ar
    22     4     5   ar
    23     5    26    1
    24    26    29    1
    25    29    30    1
    26    29    31    2
    27    29    32    2
    28    26    27    1
    29    27    28    1
    30     5     6   ar
    31    15     7   ar
    32     6     1   ar
    33    14     9   ar
    34    24    19    1
    35    28    26    1
    36    17    18    1
@<TRIPOS>MOLECULE
*****
 32 36 0 0 0
SMALL
GASTEIGER

@<TRIPOS>ATOM
      1 C         140.4453  141.1877  165.0488 C.ar    1  UNL1        0.2398
      2 N         139.8777  140.6195  163.7820 N.ar    1  UNL1       -0.1961
      3 C         140.3963  141.0838  162.4533 C.ar    1  UNL1        0.1361
      4 C         141.4825  142.1164  162.3913 C.ar    1  UNL1        0.0508
      5 C         142.0502  142.6847  163.6581 C.ar    1  UNL1        0.0845
      6 N         141.5316  142.2204  164.9868 N.ar    1  UNL1       -0.2137
      7 C         138.9973  139.5687  166.6066 C.ar    1  UNL1        0.2041
      8 N         138.7428  139.4640  168.0811 N.ar    1  UNL1       -0.2134
      9 C         139.5150  140.5541  168.7634 C.ar    1  UNL1        0.1003
     10 C         139.6464  140.9384  170.2073 C.ar    1  UNL1        0.0207
     11 C         140.5095  142.1012  170.5983 C.ar    1  UNL1        0.0016
     12 C         141.2413  142.8796  169.5454 C.ar    1  UNL1        0.0016
     13 C         141.1099  142.4952  168.1015 C.ar    1  UNL1        0.0192
     14 C         140.2468  141.3325  167.7105 C.ar    1  UNL1        0.0869
     15 N         139.9268  140.7235  166.3775 N.ar    1  UNL1       -0.2480
     16 C         139.1803  137.4607  165.0991 C.3     1  UNL1        0.1108
     17 N         138.4231  138.6754  165.5472 N.pl3   1  UNL1       -0.3023
     18 H         137.5492  138.8865  165.1459 H       1  UNL1        0.1497
     19 N         139.8286  140.5155  161.1865 N.pl3   1  UNL1       -0.2897
     20 C         140.4061  139.2603  160.6026 C.3     1  UNL1        0.1242
     21 C         139.8384  138.6920  159.3358 C.3     1  UNL1        0.1636
     22 O         138.6931  139.3789  158.6528 O.3     1  UNL1       -0.3502
     23 C         138.1156  140.6341  159.2367 C.3     1  UNL1        0.1618
     24 C         138.6833  141.2024  160.5035 C.3     1  UNL1        0.1038
     25 C         138.1056  142.4575  161.0873 C.3     1  UNL1        0.0241
     26 C         143.1364  143.7172  163.5962 C.3     1  UNL1        0.1457
     27 C         143.8108  145.0569  163.6216 C.3     1  UNL1        0.0297
     28 C         142.3280  144.9597  163.8261 C.3     1  UNL1        0.0297
     29 S         144.3220  142.8335  163.3448 S.O2    1  UNL1       -0.0065
     30 C         145.5076  141.9497  163.0934 C.3     1  UNL1        0.1764
     31 O         144.2177  143.1117  161.8746 O.2     1  UNL1       -0.1727
     32 O         144.4263  142.5552  164.8151 O.2     1  UNL1       -0.1727
@<TRIPOS>BOND
     1    16    17    1
     2    17     7    1
     3     7     8   ar
     4     8     9   ar
     5     9    10   ar
     6    10    11   ar
     7    11    12   ar
     8    12    13   ar
     9    13    14   ar
    10    14    15   ar
    11    15     1    1
    12     1     2   ar
    13     2     3   ar
    14     3    19    1
    15    19    20    1
    16    20    21    1
    17    21    22    1
    18    22    23    1
    19    23    24    1
    20    24    25    1
    21     3     4   ar
    22     4     5   ar
    23     5    26    1
    24    26    29    1
    25    29    30    1
    26    29    31    2
    27    29    32    2
    28    26    27    1
    29    27    28    1
    30     5     6   ar
    31    15     7   ar
    32     6     1   ar
    33    14     9   ar
    34    24    19    1
    35    28    26    1
    36    17    18    1
@<TRIPOS>MOLECULE
*****
 32 36 0 0 0
SMALL
GASTEIGER

@<TRIPOS>ATOM
      1 C         141.1676  140.7427  165.6803 C.ar    1  UNL1        0.2398
      2 N         140.2751  140.4148  164.5202 N.ar    1  UNL1       -0.1961
      3 C         140.7918  140.5401  163.1176 C.ar    1  UNL1        0.1361
      4 C         142.2010  140.9931  162.8750 C.ar    1  UNL1        0.0508
      5 C         143.0935  141.3210  164.0351 C.ar    1  UNL1        0.0845
      6 N         142.5769  141.1958  165.4378 N.ar    1  UNL1       -0.2137
      7 C         139.4573  139.8183  167.5148 C.ar    1  UNL1        0.2041
      8 N         139.3059  139.9763  168.9987 N.ar    1  UNL1       -0.2134
      9 C         140.4060  140.8732  169.4840 C.ar    1  UNL1        0.1003
     10 C         140.7581  141.3803  170.8510 C.ar    1  UNL1        0.0207
     11 C         141.9416  142.2836  171.0340 C.ar    1  UNL1        0.0016
     12 C         142.7728  142.6798  169.8500 C.ar    1  UNL1        0.0016
     13 C         142.4207  142.1727  168.4829 C.ar    1  UNL1        0.0192
     14 C         141.2373  141.2694  168.3000 C.ar    1  UNL1        0.0869
     15 N         140.6509  140.6174  167.0829 N.ar    1  UNL1       -0.2480
     16 C         137.4024  138.2606  167.1965 C.3     1  UNL1        0.1108
     17 N         138.5707  139.0040  166.6199 N.pl3   1  UNL1       -0.3023
     18 H         138.7556  138.9574  165.6540 H       1  UNL1        0.1497
     19 N         139.8992  140.2122  161.9575 N.pl3   1  UNL1       -0.2897
     20 C         139.1172  141.2995  161.2820 C.3     1  UNL1        0.1242
     21 C         138.2246  140.9717  160.1219 C.3     1  UNL1        0.1636
     22 O         138.1140  139.5565  159.6372 O.3     1  UNL1       -0.3502
     23 C         138.8960  138.4692  160.3126 C.3     1  UNL1        0.1618
     24 C         139.7886  138.7970  161.4727 C.3     1  UNL1        0.1038
     25 C         140.5706  137.7096  162.1481 C.3     1  UNL1        0.0241
     26 C         144.5027  141.7740  163.7927 C.3     1  UNL1        0.1457
     27 C         145.9982  141.7310  163.6841 C.3     1  UNL1        0.0297
     28 C         145.2404  140.5032  164.0939 C.3     1  UNL1        0.0297
     29 S         144.2546  143.2022  163.4073 S.O2    1  UNL1       -0.0065
     30 C         144.0064  144.6305  163.0218 C.3     1  UNL1        0.1764
     31 O         144.3298  142.8242  161.9577 O.2     1  UNL1       -0.1727
     32 O         144.1793  143.5804  164.8569 O.2     1  UNL1       -0.1727
@<TRIPOS>BOND
     1    16    17    1
     2    17     7    1
     3     7     8   ar
     4     8     9   ar
     5     9    10   ar
     6    10    11   ar
     7    11    12   ar
     8    12    13   ar
     9    13    14   ar
    10    14    15   ar
    11    15     1    1
    12     1     2   ar
    13     2     3   ar
    14     3    19    1
    15    19    20    1
    16    20    21    1
    17    21    22    1
    18    22    23    1
    19    23    24    1
    20    24    25    1
    21     3     4   ar
    22     4     5   ar
    23     5    26    1
    24    26    29    1
    25    29    30    1
    26    29    31    2
    27    29    32    2
    28    26    27    1
    29    27    28    1
    30     5     6   ar
    31    15     7   ar
    32     6     1   ar
    33    14     9   ar
    34    24    19    1
    35    28    26    1
    36    17    18    1
@<TRIPOS>MOLECULE
*****
 32 36 0 0 0
SMALL
GASTEIGER

@<TRIPOS>ATOM
      1 C         140.4171  142.0607  164.7281 C.ar    1  UNL1        0.2398
      2 N         140.8002  142.4688  166.1197 N.ar    1  UNL1       -0.1961
      3 C         140.6173  141.5109  167.2594 C.ar    1  UNL1        0.1361
      4 C         140.0512  140.1448  167.0075 C.ar    1  UNL1        0.0508
      5 C         139.6680  139.7367  165.6159 C.ar    1  UNL1        0.0845
      6 N         139.8509  140.6946  164.4762 N.ar    1  UNL1       -0.2137
      7 C         140.1029  144.4329  163.5369 C.ar    1  UNL1        0.2041
      8 N         140.5078  145.0187  162.2167 N.ar    1  UNL1       -0.2134
      9 C         141.2552  143.9665  161.4523 C.ar    1  UNL1        0.1003
     10 C         141.8912  143.9743  160.0939 C.ar    1  UNL1        0.0207
     11 C         142.5841  142.7459  159.5832 C.ar    1  UNL1        0.0016
     12 C         142.6411  141.5098  160.4309 C.ar    1  UNL1        0.0016
     13 C         142.0051  141.5020  161.7893 C.ar    1  UNL1        0.0192
     14 C         141.3121  142.7304  162.3000 C.ar    1  UNL1        0.0869
     15 N         140.6000  143.0186  163.5884 N.ar    1  UNL1       -0.2480
     16 C         138.0002  144.6120  165.0523 C.3     1  UNL1        0.1108
     17 N         139.3356  145.1377  164.6160 N.pl3   1  UNL1       -0.3023
     18 H         139.7085  145.9452  165.0380 H       1  UNL1        0.1497
     19 N         141.0005  141.9190  168.6510 N.pl3   1  UNL1       -0.2897
     20 C         139.9747  141.9071  169.7454 C.3     1  UNL1        0.1242
     21 C         140.3579  142.3152  171.1370 C.3     1  UNL1        0.1636
     22 O         141.7669  142.7353  171.4343 O.3     1  UNL1       -0.3502
     23 C         142.7926  142.7472  170.3399 C.3     1  UNL1        0.1618
     24 C         142.4094  142.3391  168.9483 C.3     1  UNL1        0.1038
     25 C         143.4352  142.3510  167.8539 C.3     1  UNL1        0.0241
     26 C         139.1019  138.3707  165.3639 C.3     1  UNL1        0.1457
     27 C         138.2583  137.1417  165.5310 C.3     1  UNL1        0.0297
     28 C         138.1063  138.2909  166.4830 C.3     1  UNL1        0.0297
     29 S         139.9008  137.9761  164.1573 S.O2    1  UNL1       -0.0065
     30 C         140.6997  137.5815  162.9507 C.3     1  UNL1        0.1764
     31 O         138.7210  138.2716  163.2794 O.2     1  UNL1       -0.1727
     32 O         141.0807  137.6806  165.0352 O.2     1  UNL1       -0.1727
@<TRIPOS>BOND
     1    16    17    1
     2    17     7    1
     3     7     8   ar
     4     8     9   ar
     5     9    10   ar
     6    10    11   ar
     7    11    12   ar
     8    12    13   ar
     9    13    14   ar
    10    14    15   ar
    11    15     1    1
    12     1     2   ar
    13     2     3   ar
    14     3    19    1
    15    19    20    1
    16    20    21    1
    17    21    22    1
    18    22    23    1
    19    23    24    1
    20    24    25    1
    21     3     4   ar
    22     4     5   ar
    23     5    26    1
    24    26    29    1
    25    29    30    1
    26    29    31    2
    27    29    32    2
    28    26    27    1
    29    27    28    1
    30     5     6   ar
    31    15     7   ar
    32     6     1   ar
    33    14     9   ar
    34    24    19    1
    35    28    26    1
    36    17    18    1
