@<TRIPOS>MOLECULE
*****
 35 40 0 0 0
SMALL
GASTEIGER

@<TRIPOS>ATOM
      1 C         140.0452  144.2363  156.8892 C.2     1  UNL1        0.0968
      2 C         140.8636  145.2124  156.0970 C.2     1  UNL1        0.0952
      3 BR        140.5767  145.4228  154.6398 Br      1  UNL1       -0.0439
      4 C         141.9689  145.9779  156.7620 C.2     1  UNL1        0.2434
      5 N         142.2558  145.7674  158.2192 N.2     1  UNL1       -0.0297
      6 C         141.4373  144.7914  159.0114 C.2     1  UNL1        0.4105
      7 N         141.4871  144.3765  160.4520 N.2     1  UNL1        0.0120
      8 C         140.4125  143.3545  160.6773 C.2     1  UNL1        0.3751
      9 N         139.6986  143.1378  159.3760 N.2     1  UNL1       -0.0450
     10 C         140.3320  144.0259  158.3463 C.3     1  UNL1        0.3605
     11 N         136.7291  141.9398  154.8941 N.3     1  UNL1       -0.2646
     12 C         136.5049  143.3591  155.3250 C.3     1  UNL1        0.0941
     13 C         137.6101  144.1245  155.9900 C.3     1  UNL1        0.1080
     14 N         138.9398  143.4708  156.2241 N.pl3   1  UNL1       -0.3037
     15 C         139.1641  142.0517  155.7933 C.3     1  UNL1        0.1080
     16 C         138.0587  141.2862  155.1283 C.3     1  UNL1        0.0941
     17 C         135.6238  141.1744  154.2291 C.3     1  UNL1        0.1222
     18 C         131.2679  139.9520  156.9518 C.3     1  UNL1        0.0754
     19 C         132.6217  139.8646  156.3117 C.ar    1  UNL1        0.1546
     20 C         133.2863  140.9400  155.5043 C.ar    1  UNL1        0.0550
     21 C         134.6238  140.4265  155.0603 C.ar    1  UNL1        0.1165
     22 N         134.7859  139.0338  155.5933 N.ar    1  UNL1       -0.0803
     23 O         133.5485  138.6865  156.3667 O.2     1  UNL1       -0.3580
     24 C         140.1055  142.6694  161.9760 C.ar    1  UNL1        0.0882
     25 C         141.0809  141.6879  162.5550 C.ar    1  UNL1        0.0089
     26 C         140.7739  141.0029  163.8537 C.ar    1  UNL1        0.0148
     27 C         139.4916  141.2994  164.5733 C.ar    1  UNL1        0.0480
     28 C         138.5163  142.2809  163.9943 C.ar    1  UNL1        0.0148
     29 C         138.8233  142.9659  162.6956 C.ar    1  UNL1        0.0089
     30 N         139.1847  140.6143  165.8720 N.pl3   1  UNL1       -0.3028
     31 C         138.1636  139.5166  165.9179 C.3     1  UNL1        0.1231
     32 C         137.8566  138.8315  167.2166 C.3     1  UNL1        0.1636
     33 O         138.5710  139.2444  168.4693 O.3     1  UNL1       -0.3501
     34 C         139.5921  140.3421  168.4234 C.3     1  UNL1        0.1636
     35 C         139.8990  141.0271  167.1247 C.3     1  UNL1        0.1231
@<TRIPOS>BOND
     1    18    19    1
     2    19    20   ar
     3    20    21   ar
     4    21    17    1
     5    17    11    1
     6    11    12    1
     7    12    13    1
     8    13    14    1
     9    14     1    1
    10     1     2    2
    11     2     3    1
    12     2     4    1
    13     4     5    2
    14     5     6    1
    15     6     7    2
    16     7     8    1
    17     8    24    1
    18    24    25   ar
    19    25    26   ar
    20    26    27   ar
    21    27    30    1
    22    30    31    1
    23    31    32    1
    24    32    33    1
    25    33    34    1
    26    34    35    1
    27    27    28   ar
    28    28    29   ar
    29     8     9    2
    30     9    10    1
    31    14    15    1
    32    15    16    1
    33    21    22   ar
    34    22    23   ar
    35    23    19   ar
    36    16    11    1
    37    10     1    1
    38    10     6    1
    39    29    24   ar
    40    35    30    1
@<TRIPOS>MOLECULE
*****
 35 40 0 0 0
SMALL
GASTEIGER

@<TRIPOS>ATOM
      1 C         142.1298  138.7640  158.1865 C.2     1  UNL1        0.0968
      2 C         142.3195  140.1694  157.6978 C.2     1  UNL1        0.0952
      3 BR        141.6766  141.3108  158.4286 Br      1  UNL1       -0.0439
      4 C         143.1520  140.4335  156.4783 C.2     1  UNL1        0.2434
      5 N         143.7949  139.2921  155.7475 N.2     1  UNL1       -0.0297
      6 C         143.6052  137.8867  156.2362 C.2     1  UNL1        0.4105
      7 N         144.1113  136.5699  155.7263 N.2     1  UNL1        0.0120
      8 C         143.5915  135.4921  156.6308 C.2     1  UNL1        0.3751
      9 N         142.7642  136.1426  157.6995 N.2     1  UNL1       -0.0450
     10 C         142.7726  137.6227  157.4557 C.3     1  UNL1        0.3605
     11 N         139.6321  137.9718  161.8449 N.3     1  UNL1       -0.2646
     12 C         138.9678  138.2580  160.5308 C.3     1  UNL1        0.0941
     13 C         139.8003  138.5220  159.3114 C.3     1  UNL1        0.1080
     14 N         141.2973  138.4999  159.4060 N.pl3   1  UNL1       -0.3037
     15 C         141.9616  138.2138  160.7200 C.3     1  UNL1        0.1080
     16 C         141.1289  137.9497  161.9395 C.3     1  UNL1        0.0941
     17 C         138.7996  137.7078  163.0643 C.3     1  UNL1        0.1222
     18 C         139.2375  139.8423  167.8741 C.3     1  UNL1        0.0754
     19 C         138.9897  139.6767  166.4040 C.ar    1  UNL1        0.1546
     20 C         139.1353  138.4042  165.6232 C.ar    1  UNL1        0.0550
     21 C         138.7885  138.6956  164.1932 C.ar    1  UNL1        0.1165
     22 N         138.4285  140.1481  164.0903 N.ar    1  UNL1       -0.0803
     23 O         138.5529  140.7544  165.4566 O.2     1  UNL1       -0.3580
     24 C         143.8531  134.0217  156.4910 C.ar    1  UNL1        0.0882
     25 C         144.5111  133.2674  157.6082 C.ar    1  UNL1        0.0089
     26 C         144.7727  131.7970  157.4683 C.ar    1  UNL1        0.0148
     27 C         144.3763  131.0809  156.2114 C.ar    1  UNL1        0.0480
     28 C         143.7184  131.8351  155.0941 C.ar    1  UNL1        0.0148
     29 C         143.4568  133.3055  155.2340 C.ar    1  UNL1        0.0089
     30 N         144.6380  129.6105  156.0716 N.pl3   1  UNL1       -0.3028
     31 C         144.5604  128.7172  157.2741 C.3     1  UNL1        0.1231
     32 C         144.8220  127.2469  157.1343 C.3     1  UNL1        0.1636
     33 O         145.1612  126.6698  155.7919 O.3     1  UNL1       -0.3501
     34 C         145.2388  127.5630  154.5895 C.3     1  UNL1        0.1636
     35 C         144.9772  129.0334  154.7292 C.3     1  UNL1        0.1231
@<TRIPOS>BOND
     1    18    19    1
     2    19    20   ar
     3    20    21   ar
     4    21    17    1
     5    17    11    1
     6    11    12    1
     7    12    13    1
     8    13    14    1
     9    14     1    1
    10     1     2    2
    11     2     3    1
    12     2     4    1
    13     4     5    2
    14     5     6    1
    15     6     7    2
    16     7     8    1
    17     8    24    1
    18    24    25   ar
    19    25    26   ar
    20    26    27   ar
    21    27    30    1
    22    30    31    1
    23    31    32    1
    24    32    33    1
    25    33    34    1
    26    34    35    1
    27    27    28   ar
    28    28    29   ar
    29     8     9    2
    30     9    10    1
    31    14    15    1
    32    15    16    1
    33    21    22   ar
    34    22    23   ar
    35    23    19   ar
    36    16    11    1
    37    10     1    1
    38    10     6    1
    39    29    24   ar
    40    35    30    1
@<TRIPOS>MOLECULE
*****
 35 40 0 0 0
SMALL
GASTEIGER

@<TRIPOS>ATOM
      1 C         142.2612  139.9115  160.5020 C.2     1  UNL1        0.0968
      2 C         142.8750  141.2746  160.6261 C.2     1  UNL1        0.0952
      3 BR        142.6023  142.1120  161.8405 Br      1  UNL1       -0.0439
      4 C         143.7612  141.8001  159.5361 C.2     1  UNL1        0.2434
      5 N         144.0338  140.9627  158.3218 N.2     1  UNL1       -0.0297
      6 C         143.4201  139.5996  158.1977 C.2     1  UNL1        0.4105
      7 N         143.5066  138.5538  157.1259 N.2     1  UNL1        0.0120
      8 C         142.6738  137.3819  157.5536 C.2     1  UNL1        0.3751
      9 N         142.0726  137.7034  158.8897 N.2     1  UNL1       -0.0450
     10 C         142.5338  139.0741  159.2878 C.3     1  UNL1        0.3605
     11 N         139.6022  138.3349  163.7722 N.3     1  UNL1       -0.2646
     12 C         139.0617  139.3143  162.7728 C.3     1  UNL1        0.0941
     13 C         139.9480  139.8398  161.6828 C.3     1  UNL1        0.1080
     14 N         141.3749  139.3860  161.5921 N.pl3   1  UNL1       -0.3037
     15 C         141.9155  138.4066  162.5914 C.3     1  UNL1        0.1080
     16 C         141.0291  137.8811  163.6815 C.3     1  UNL1        0.0941
     17 C         138.7160  137.8094  164.8622 C.3     1  UNL1        0.1222
     18 C         139.9175  140.9717  168.9165 C.3     1  UNL1        0.0754
     19 C         139.2336  139.9477  168.0600 C.ar    1  UNL1        0.1546
     20 C         139.6409  139.5436  166.6740 C.ar    1  UNL1        0.0550
     21 C         138.6814  138.4942  166.1964 C.ar    1  UNL1        0.1165
     22 N         137.6811  138.2497  167.2872 N.ar    1  UNL1       -0.0803
     23 O         138.0224  139.1480  168.4389 O.2     1  UNL1       -0.3580
     24 C         142.4768  136.1114  156.7809 C.ar    1  UNL1        0.0882
     25 C         143.2977  134.8994  157.1084 C.ar    1  UNL1        0.0089
     26 C         143.1007  133.6289  156.3356 C.ar    1  UNL1        0.0148
     27 C         142.0828  133.5704  155.2354 C.ar    1  UNL1        0.0480
     28 C         141.2618  134.7824  154.9080 C.ar    1  UNL1        0.0148
     29 C         141.4589  136.0528  155.6807 C.ar    1  UNL1        0.0089
     30 N         141.8858  132.2999  154.4627 N.pl3   1  UNL1       -0.3028
     31 C         142.9016  131.8769  153.4433 C.3     1  UNL1        0.1231
     32 C         142.7046  130.6064  152.6706 C.3     1  UNL1        0.1636
     33 O         141.4917  129.7590  152.9174 O.3     1  UNL1       -0.3501
     34 C         140.4760  130.1821  153.9367 C.3     1  UNL1        0.1636
     35 C         140.6729  131.4525  154.7094 C.3     1  UNL1        0.1231
@<TRIPOS>BOND
     1    18    19    1
     2    19    20   ar
     3    20    21   ar
     4    21    17    1
     5    17    11    1
     6    11    12    1
     7    12    13    1
     8    13    14    1
     9    14     1    1
    10     1     2    2
    11     2     3    1
    12     2     4    1
    13     4     5    2
    14     5     6    1
    15     6     7    2
    16     7     8    1
    17     8    24    1
    18    24    25   ar
    19    25    26   ar
    20    26    27   ar
    21    27    30    1
    22    30    31    1
    23    31    32    1
    24    32    33    1
    25    33    34    1
    26    34    35    1
    27    27    28   ar
    28    28    29   ar
    29     8     9    2
    30     9    10    1
    31    14    15    1
    32    15    16    1
    33    21    22   ar
    34    22    23   ar
    35    23    19   ar
    36    16    11    1
    37    10     1    1
    38    10     6    1
    39    29    24   ar
    40    35    30    1
@<TRIPOS>MOLECULE
*****
 35 40 0 0 0
SMALL
GASTEIGER

@<TRIPOS>ATOM
      1 C         140.1808  143.9864  157.2799 C.2     1  UNL1        0.0968
      2 C         140.8501  144.8887  156.2859 C.2     1  UNL1        0.0952
      3 BR        140.4658  144.8248  154.8374 Br      1  UNL1       -0.0439
      4 C         141.9037  145.8547  156.7405 C.2     1  UNL1        0.2434
      5 N         142.2880  145.9185  158.1891 N.2     1  UNL1       -0.0297
      6 C         141.6186  145.0163  159.1830 C.2     1  UNL1        0.4105
      7 N         141.7876  144.8545  160.6647 N.2     1  UNL1        0.0120
      8 C         140.8385  143.7884  161.1257 C.2     1  UNL1        0.3751
      9 N         140.0828  143.2914  159.9291 N.2     1  UNL1       -0.0450
     10 C         140.5650  144.0503  158.7284 C.3     1  UNL1        0.3605
     11 N         137.0200  141.0882  155.9160 N.3     1  UNL1       -0.2646
     12 C         138.3621  140.5824  156.3553 C.3     1  UNL1        0.0941
     13 C         139.4156  141.5484  156.8099 C.3     1  UNL1        0.1080
     14 N         139.1271  143.0204  156.8252 N.pl3   1  UNL1       -0.3037
     15 C         137.7851  143.5263  156.3859 C.3     1  UNL1        0.1080
     16 C         136.7315  142.5601  155.9313 C.3     1  UNL1        0.0941
     17 C         135.9665  140.1222  155.4614 C.3     1  UNL1        0.1222
     18 C         130.8681  141.4907  155.5885 C.3     1  UNL1        0.0754
     19 C         132.2029  140.9230  155.9711 C.ar    1  UNL1        0.1546
     20 C         133.4558  140.9850  155.1487 C.ar    1  UNL1        0.0550
     21 C         134.5463  140.2941  155.9127 C.ar    1  UNL1        0.1165
     22 N         133.9672  139.8051  157.2072 N.ar    1  UNL1       -0.0803
     23 O         132.5189  140.1939  157.2433 O.2     1  UNL1       -0.3580
     24 C         140.6738  143.3044  162.5359 C.ar    1  UNL1        0.0882
     25 C         140.0606  144.2013  163.5700 C.ar    1  UNL1        0.0089
     26 C         139.8960  143.7172  164.9802 C.ar    1  UNL1        0.0148
     27 C         140.3446  142.3361  165.3562 C.ar    1  UNL1        0.0480
     28 C         140.9578  141.4391  164.3221 C.ar    1  UNL1        0.0148
     29 C         141.1224  141.9233  162.9120 C.ar    1  UNL1        0.0089
     30 N         140.1800  141.8520  166.7664 N.pl3   1  UNL1       -0.3028
     31 C         140.5606  142.7404  167.9136 C.3     1  UNL1        0.1231
     32 C         140.3960  142.2563  169.3238 C.3     1  UNL1        0.1636
     33 O         139.8506  140.8838  169.5867 O.3     1  UNL1       -0.3501
     34 C         139.4700  139.9956  168.4395 C.3     1  UNL1        0.1636
     35 C         139.6347  140.4797  167.0293 C.3     1  UNL1        0.1231
@<TRIPOS>BOND
     1    18    19    1
     2    19    20   ar
     3    20    21   ar
     4    21    17    1
     5    17    11    1
     6    11    12    1
     7    12    13    1
     8    13    14    1
     9    14     1    1
    10     1     2    2
    11     2     3    1
    12     2     4    1
    13     4     5    2
    14     5     6    1
    15     6     7    2
    16     7     8    1
    17     8    24    1
    18    24    25   ar
    19    25    26   ar
    20    26    27   ar
    21    27    30    1
    22    30    31    1
    23    31    32    1
    24    32    33    1
    25    33    34    1
    26    34    35    1
    27    27    28   ar
    28    28    29   ar
    29     8     9    2
    30     9    10    1
    31    14    15    1
    32    15    16    1
    33    21    22   ar
    34    22    23   ar
    35    23    19   ar
    36    16    11    1
    37    10     1    1
    38    10     6    1
    39    29    24   ar
    40    35    30    1
@<TRIPOS>MOLECULE
*****
 35 40 0 0 0
SMALL
GASTEIGER

@<TRIPOS>ATOM
      1 C         143.3161  140.1194  159.9244 C.2     1  UNL1        0.0968
      2 C         143.7344  141.5353  159.6593 C.2     1  UNL1        0.0952
      3 BR        143.8224  142.5157  160.7913 Br      1  UNL1       -0.0439
      4 C         144.0648  141.9708  158.2626 C.2     1  UNL1        0.2434
      5 N         143.9768  140.9904  157.1306 N.2     1  UNL1       -0.0297
      6 C         143.5585  139.5745  157.3957 C.2     1  UNL1        0.4105
      7 N         143.3826  138.3933  156.4880 N.2     1  UNL1        0.0120
      8 C         142.9435  137.2278  157.3239 C.2     1  UNL1        0.3751
      9 N         142.8480  137.6887  158.7482 N.2     1  UNL1       -0.0450
     10 C         143.2281  139.1390  158.7925 C.3     1  UNL1        0.3605
     11 N         142.3251  138.8130  164.1150 N.3     1  UNL1       -0.2646
     12 C         143.7551  138.8707  163.6658 C.3     1  UNL1        0.0941
     13 C         144.0854  139.3062  162.2690 C.3     1  UNL1        0.1080
     14 N         142.9857  139.6839  161.3212 N.pl3   1  UNL1       -0.3037
     15 C         141.5557  139.6262  161.7704 C.3     1  UNL1        0.1080
     16 C         141.2254  139.1907  163.1673 C.3     1  UNL1        0.0941
     17 C         141.9948  138.3775  165.5118 C.3     1  UNL1        0.1222
     18 C         142.3743  142.6157  168.6384 C.3     1  UNL1        0.0754
     19 C         142.4969  141.2172  168.1099 C.ar    1  UNL1        0.1546
     20 C         141.9815  140.7252  166.7898 C.ar    1  UNL1        0.0550
     21 C         142.3224  139.2692  166.6727 C.ar    1  UNL1        0.1165
     22 N         143.0485  138.8613  167.9203 N.ar    1  UNL1       -0.0803
     23 O         143.1563  140.0652  168.8085 O.2     1  UNL1       -0.3580
     24 C         142.6511  135.8443  156.8235 C.ar    1  UNL1        0.0882
     25 C         141.6474  135.6396  155.7278 C.ar    1  UNL1        0.0089
     26 C         141.3551  134.2560  155.2274 C.ar    1  UNL1        0.0148
     27 C         142.0665  133.0772  155.8226 C.ar    1  UNL1        0.0480
     28 C         143.0703  133.2819  156.9183 C.ar    1  UNL1        0.0148
     29 C         143.3626  134.6655  157.4187 C.ar    1  UNL1        0.0089
     30 N         141.7742  131.6937  155.3222 N.pl3   1  UNL1       -0.3028
     31 C         140.6297  131.4630  154.3804 C.3     1  UNL1        0.1231
     32 C         140.3374  130.0795  153.8800 C.3     1  UNL1        0.1636
     33 O         141.1897  128.9267  154.3214 O.3     1  UNL1       -0.3501
     34 C         142.3341  129.1574  155.2631 C.3     1  UNL1        0.1636
     35 C         142.6264  130.5409  155.7635 C.3     1  UNL1        0.1231
@<TRIPOS>BOND
     1    18    19    1
     2    19    20   ar
     3    20    21   ar
     4    21    17    1
     5    17    11    1
     6    11    12    1
     7    12    13    1
     8    13    14    1
     9    14     1    1
    10     1     2    2
    11     2     3    1
    12     2     4    1
    13     4     5    2
    14     5     6    1
    15     6     7    2
    16     7     8    1
    17     8    24    1
    18    24    25   ar
    19    25    26   ar
    20    26    27   ar
    21    27    30    1
    22    30    31    1
    23    31    32    1
    24    32    33    1
    25    33    34    1
    26    34    35    1
    27    27    28   ar
    28    28    29   ar
    29     8     9    2
    30     9    10    1
    31    14    15    1
    32    15    16    1
    33    21    22   ar
    34    22    23   ar
    35    23    19   ar
    36    16    11    1
    37    10     1    1
    38    10     6    1
    39    29    24   ar
    40    35    30    1
@<TRIPOS>MOLECULE
*****
 35 40 0 0 0
SMALL
GASTEIGER

@<TRIPOS>ATOM
      1 C         143.0942  140.0977  157.7681 C.2     1  UNL1        0.0968
      2 C         143.9914  141.2541  157.4401 C.2     1  UNL1        0.0952
      3 BR        143.7782  142.5812  158.1062 Br      1  UNL1       -0.0439
      4 C         145.1017  141.0836  156.4461 C.2     1  UNL1        0.2434
      5 N         145.3148  139.7565  155.7801 N.2     1  UNL1       -0.0297
      6 C         144.4176  138.6001  156.1081 C.2     1  UNL1        0.4105
      7 N         144.3851  137.1837  155.6153 N.2     1  UNL1        0.0120
      8 C         143.2546  136.4789  156.3048 C.2     1  UNL1        0.3751
      9 N         142.5885  137.4597  157.2237 N.2     1  UNL1       -0.0450
     10 C         143.3073  138.7707  157.1022 C.3     1  UNL1        0.3605
     11 N         139.7633  140.6095  160.7504 N.3     1  UNL1       -0.2646
     12 C         141.1087  140.1257  161.2043 C.3     1  UNL1        0.0941
     13 C         142.2189  139.9551  160.2103 C.3     1  UNL1        0.1080
     14 N         141.9839  140.2683  158.7622 N.pl3   1  UNL1       -0.3037
     15 C         140.6385  140.7521  158.3082 C.3     1  UNL1        0.1080
     16 C         139.5283  140.9226  159.3024 C.3     1  UNL1        0.0941
     17 C         138.6530  140.7801  161.7444 C.3     1  UNL1        0.1222
     18 C         138.4558  144.7614  165.2073 C.3     1  UNL1        0.0754
     19 C         138.3070  143.9538  163.9520 C.ar    1  UNL1        0.1546
     20 C         138.7367  142.5289  163.7642 C.ar    1  UNL1        0.0550
     21 C         138.3977  142.1238  162.3604 C.ar    1  UNL1        0.1165
     22 N         137.7583  143.2982  161.6805 N.ar    1  UNL1       -0.0803
     23 O         137.7023  144.4291  162.6643 O.2     1  UNL1       -0.3580
     24 C         142.8596  135.0451  156.1097 C.ar    1  UNL1        0.0882
     25 C         141.7662  134.6930  155.1452 C.ar    1  UNL1        0.0089
     26 C         141.3712  133.2591  154.9501 C.ar    1  UNL1        0.0148
     27 C         142.0697  132.1773  155.7196 C.ar    1  UNL1        0.0480
     28 C         143.1632  132.5295  156.6841 C.ar    1  UNL1        0.0148
     29 C         143.5581  133.9634  156.8791 C.ar    1  UNL1        0.0089
     30 N         141.6747  130.7435  155.5244 N.pl3   1  UNL1       -0.3028
     31 C         142.5291  129.6469  156.0878 C.3     1  UNL1        0.1231
     32 C         142.1341  128.2130  155.8927 C.3     1  UNL1        0.1636
     33 O         140.8846  127.8759  155.1341 O.3     1  UNL1       -0.3501
     34 C         140.0303  128.9725  154.5708 C.3     1  UNL1        0.1636
     35 C         140.4253  130.4064  154.7659 C.3     1  UNL1        0.1231
@<TRIPOS>BOND
     1    18    19    1
     2    19    20   ar
     3    20    21   ar
     4    21    17    1
     5    17    11    1
     6    11    12    1
     7    12    13    1
     8    13    14    1
     9    14     1    1
    10     1     2    2
    11     2     3    1
    12     2     4    1
    13     4     5    2
    14     5     6    1
    15     6     7    2
    16     7     8    1
    17     8    24    1
    18    24    25   ar
    19    25    26   ar
    20    26    27   ar
    21    27    30    1
    22    30    31    1
    23    31    32    1
    24    32    33    1
    25    33    34    1
    26    34    35    1
    27    27    28   ar
    28    28    29   ar
    29     8     9    2
    30     9    10    1
    31    14    15    1
    32    15    16    1
    33    21    22   ar
    34    22    23   ar
    35    23    19   ar
    36    16    11    1
    37    10     1    1
    38    10     6    1
    39    29    24   ar
    40    35    30    1
@<TRIPOS>MOLECULE
*****
 35 40 0 0 0
SMALL
GASTEIGER

@<TRIPOS>ATOM
      1 C         143.3531  140.1213  158.5932 C.2     1  UNL1        0.0968
      2 C         143.7385  141.4701  158.0622 C.2     1  UNL1        0.0952
      3 BR        143.8199  142.6461  158.9899 Br      1  UNL1       -0.0439
      4 C         144.0424  141.6431  156.6036 C.2     1  UNL1        0.2434
      5 N         143.9610  140.4671  155.6759 N.2     1  UNL1       -0.0297
      6 C         143.5755  139.1183  156.2069 C.2     1  UNL1        0.4105
      7 N         143.4131  137.7854  155.5383 N.2     1  UNL1        0.0120
      8 C         143.0088  136.7887  156.5838 C.2     1  UNL1        0.3751
      9 N         142.9213  137.5055  157.8985 N.2     1  UNL1       -0.0450
     10 C         143.2716  138.9453  157.6656 C.3     1  UNL1        0.3605
     11 N         142.4411  139.6025  162.9693 N.3     1  UNL1       -0.2646
     12 C         141.3982  140.1606  162.0467 C.3     1  UNL1        0.0941
     13 C         141.7021  140.3335  160.5882 C.3     1  UNL1        0.1080
     14 N         143.0491  139.9483  160.0519 N.pl3   1  UNL1       -0.3037
     15 C         144.0920  139.3903  160.9743 C.3     1  UNL1        0.1080
     16 C         143.7880  139.2174  162.4330 C.3     1  UNL1        0.0941
     17 C         142.1371  139.4296  164.4278 C.3     1  UNL1        0.1222
     18 C         137.6095  138.5447  166.9967 C.3     1  UNL1        0.0754
     19 C         138.7541  138.4127  166.0363 C.ar    1  UNL1        0.1546
     20 C         139.9443  139.3220  165.9526 C.ar    1  UNL1        0.0550
     21 C         140.8352  138.8195  164.8555 C.ar    1  UNL1        0.1165
     22 N         140.1958  137.5997  164.2611 N.ar    1  UNL1       -0.0803
     23 O         138.9097  137.3483  164.9909 O.2     1  UNL1       -0.3580
     24 C         142.7392  135.3309  156.3548 C.ar    1  UNL1        0.0882
     25 C         143.4577  134.2980  157.1714 C.ar    1  UNL1        0.0089
     26 C         143.1881  132.8403  156.9424 C.ar    1  UNL1        0.0148
     27 C         142.2000  132.4155  155.8968 C.ar    1  UNL1        0.0480
     28 C         141.4814  133.4484  155.0802 C.ar    1  UNL1        0.0148
     29 C         141.7511  134.9061  155.3093 C.ar    1  UNL1        0.0089
     30 N         141.9304  130.9578  155.6678 N.pl3   1  UNL1       -0.3028
     31 C         142.8446  129.9245  156.2566 C.3     1  UNL1        0.1231
     32 C         142.5750  128.4668  156.0276 C.3     1  UNL1        0.1636
     33 O         141.3912  128.0425  155.2098 O.3     1  UNL1       -0.3501
     34 C         140.4771  129.0758  154.6211 C.3     1  UNL1        0.1636
     35 C         140.7467  130.5335  154.8501 C.3     1  UNL1        0.1231
@<TRIPOS>BOND
     1    18    19    1
     2    19    20   ar
     3    20    21   ar
     4    21    17    1
     5    17    11    1
     6    11    12    1
     7    12    13    1
     8    13    14    1
     9    14     1    1
    10     1     2    2
    11     2     3    1
    12     2     4    1
    13     4     5    2
    14     5     6    1
    15     6     7    2
    16     7     8    1
    17     8    24    1
    18    24    25   ar
    19    25    26   ar
    20    26    27   ar
    21    27    30    1
    22    30    31    1
    23    31    32    1
    24    32    33    1
    25    33    34    1
    26    34    35    1
    27    27    28   ar
    28    28    29   ar
    29     8     9    2
    30     9    10    1
    31    14    15    1
    32    15    16    1
    33    21    22   ar
    34    22    23   ar
    35    23    19   ar
    36    16    11    1
    37    10     1    1
    38    10     6    1
    39    29    24   ar
    40    35    30    1
@<TRIPOS>MOLECULE
*****
 35 40 0 0 0
SMALL
GASTEIGER

@<TRIPOS>ATOM
      1 C         142.5569  139.3365  156.9470 C.2     1  UNL1        0.0968
      2 C         143.1423  140.5228  156.2399 C.2     1  UNL1        0.0952
      3 BR        142.6863  141.9072  156.5941 Br      1  UNL1       -0.0439
      4 C         144.1837  140.3246  155.1787 C.2     1  UNL1        0.2434
      5 N         144.6397  138.9401  154.8245 N.2     1  UNL1       -0.0297
      6 C         144.0543  137.7539  155.5316 C.2     1  UNL1        0.4105
      7 N         144.3050  136.2811  155.3975 N.2     1  UNL1        0.0120
      8 C         143.4186  135.5690  156.3759 C.2     1  UNL1        0.3751
      9 N         142.6200  136.6017  157.1147 N.2     1  UNL1       -0.0450
     10 C         143.0129  137.9521  156.5929 C.3     1  UNL1        0.3605
     11 N         139.4328  139.9310  160.1308 N.3     1  UNL1       -0.2646
     12 C         140.8745  139.7751  160.5145 C.3     1  UNL1        0.0941
     13 C         141.9158  139.5769  159.4533 C.3     1  UNL1        0.1080
     14 N         141.5155  139.5347  158.0083 N.pl3   1  UNL1       -0.3037
     15 C         140.0738  139.6906  157.6245 C.3     1  UNL1        0.1080
     16 C         139.0325  139.8887  158.6859 C.3     1  UNL1        0.0941
     17 C         138.3915  140.1292  161.1920 C.3     1  UNL1        0.1222
     18 C         137.8074  144.0746  164.6524 C.3     1  UNL1        0.0754
     19 C         137.8984  143.3054  163.3678 C.ar    1  UNL1        0.1546
     20 C         138.1597  141.8341  163.2377 C.ar    1  UNL1        0.0550
     21 C         138.1668  141.4920  161.7773 C.ar    1  UNL1        0.1165
     22 N         137.9099  142.7518  161.0048 N.ar    1  UNL1       -0.0803
     23 O         137.7440  143.8726  161.9878 O.2     1  UNL1       -0.3580
     24 C         143.3439  134.0848  156.5797 C.ar    1  UNL1        0.0882
     25 C         142.2936  133.2823  155.8705 C.ar    1  UNL1        0.0089
     26 C         142.2189  131.7981  156.0744 C.ar    1  UNL1        0.0148
     27 C         143.1945  131.1164  156.9874 C.ar    1  UNL1        0.0480
     28 C         144.2447  131.9188  157.6965 C.ar    1  UNL1        0.0148
     29 C         144.3194  133.4031  157.4927 C.ar    1  UNL1        0.0089
     30 N         143.1197  129.6322  157.1912 N.pl3   1  UNL1       -0.3028
     31 C         142.4875  128.7624  156.1453 C.3     1  UNL1        0.1231
     32 C         142.4128  127.2782  156.3492 C.3     1  UNL1        0.1636
     33 O         142.9703  126.6638  157.5989 O.3     1  UNL1       -0.3501
     34 C         143.6025  127.5336  158.6447 C.3     1  UNL1        0.1636
     35 C         143.6772  129.0178  158.4409 C.3     1  UNL1        0.1231
@<TRIPOS>BOND
     1    18    19    1
     2    19    20   ar
     3    20    21   ar
     4    21    17    1
     5    17    11    1
     6    11    12    1
     7    12    13    1
     8    13    14    1
     9    14     1    1
    10     1     2    2
    11     2     3    1
    12     2     4    1
    13     4     5    2
    14     5     6    1
    15     6     7    2
    16     7     8    1
    17     8    24    1
    18    24    25   ar
    19    25    26   ar
    20    26    27   ar
    21    27    30    1
    22    30    31    1
    23    31    32    1
    24    32    33    1
    25    33    34    1
    26    34    35    1
    27    27    28   ar
    28    28    29   ar
    29     8     9    2
    30     9    10    1
    31    14    15    1
    32    15    16    1
    33    21    22   ar
    34    22    23   ar
    35    23    19   ar
    36    16    11    1
    37    10     1    1
    38    10     6    1
    39    29    24   ar
    40    35    30    1
@<TRIPOS>MOLECULE
*****
 35 40 0 0 0
SMALL
GASTEIGER

@<TRIPOS>ATOM
      1 C         140.4293  142.7348  161.7446 C.2     1  UNL1        0.0968
      2 C         140.3219  144.2307  161.7739 C.2     1  UNL1        0.0952
      3 BR        140.1117  144.9420  163.0777 Br      1  UNL1       -0.0439
      4 C         140.4246  145.0151  160.4996 C.2     1  UNL1        0.2434
      5 N         140.6347  144.3037  159.1958 N.2     1  UNL1       -0.0297
      6 C         140.7422  142.8079  159.1664 C.2     1  UNL1        0.4105
      7 N         140.9483  141.8383  158.0406 N.2     1  UNL1        0.0120
      8 C         140.9729  140.4547  158.6192 C.2     1  UNL1        0.3751
      9 N         140.7821  140.5690  160.1026 N.2     1  UNL1       -0.0450
     10 C         140.6394  142.0234  160.4408 C.3     1  UNL1        0.3605
     11 N         140.1211  140.3814  165.5678 N.3     1  UNL1       -0.2646
     12 C         138.8825  140.7133  164.7894 C.3     1  UNL1        0.0941
     13 C         138.9852  141.4977  163.5150 C.3     1  UNL1        0.1080
     14 N         140.3266  141.9503  163.0190 N.pl3   1  UNL1       -0.3037
     15 C         141.5652  141.6185  163.7973 C.3     1  UNL1        0.1080
     16 C         141.4623  140.8340  165.0717 C.3     1  UNL1        0.0941
     17 C         140.0183  139.5970  166.8421 C.3     1  UNL1        0.1222
     18 C         139.8889  143.2122  170.6885 C.3     1  UNL1        0.0754
     19 C         139.6477  141.9596  169.8993 C.ar    1  UNL1        0.1546
     20 C         140.2027  141.6535  168.5398 C.ar    1  UNL1        0.0550
     21 C         139.7072  140.2979  168.1313 C.ar    1  UNL1        0.1165
     22 N         138.8460  139.7662  169.2384 N.ar    1  UNL1       -0.0803
     23 O         138.8093  140.7932  170.3311 O.2     1  UNL1       -0.3580
     24 C         141.1563  139.1803  157.8495 C.ar    1  UNL1        0.0882
     25 C         142.5047  138.5258  157.7927 C.ar    1  UNL1        0.0089
     26 C         142.6880  137.2514  157.0230 C.ar    1  UNL1        0.0148
     27 C         141.5229  136.6315  156.3102 C.ar    1  UNL1        0.0480
     28 C         140.1744  137.2860  156.3669 C.ar    1  UNL1        0.0148
     29 C         139.9912  138.5604  157.1366 C.ar    1  UNL1        0.0089
     30 N         141.7062  135.3572  155.5405 N.pl3   1  UNL1       -0.3028
     31 C         142.3617  134.1754  156.1916 C.3     1  UNL1        0.1231
     32 C         142.5451  132.9011  155.4219 C.3     1  UNL1        0.1636
     33 O         142.0728  132.8085  154.0011 O.3     1  UNL1       -0.3501
     34 C         141.4174  133.9902  153.3501 C.3     1  UNL1        0.1636
     35 C         141.2340  135.2646  154.1198 C.3     1  UNL1        0.1231
@<TRIPOS>BOND
     1    18    19    1
     2    19    20   ar
     3    20    21   ar
     4    21    17    1
     5    17    11    1
     6    11    12    1
     7    12    13    1
     8    13    14    1
     9    14     1    1
    10     1     2    2
    11     2     3    1
    12     2     4    1
    13     4     5    2
    14     5     6    1
    15     6     7    2
    16     7     8    1
    17     8    24    1
    18    24    25   ar
    19    25    26   ar
    20    26    27   ar
    21    27    30    1
    22    30    31    1
    23    31    32    1
    24    32    33    1
    25    33    34    1
    26    34    35    1
    27    27    28   ar
    28    28    29   ar
    29     8     9    2
    30     9    10    1
    31    14    15    1
    32    15    16    1
    33    21    22   ar
    34    22    23   ar
    35    23    19   ar
    36    16    11    1
    37    10     1    1
    38    10     6    1
    39    29    24   ar
    40    35    30    1
