@<TRIPOS>MOLECULE
*****
 42 47 0 0 0
SMALL
GASTEIGER

@<TRIPOS>ATOM
      1 N         138.6159  142.3951  157.7592 N.am    1  UNL1       -0.2222
      2 C         138.5513  141.7755  159.1238 C.2     1  UNL1        0.3219
      3 O         137.9229  140.4568  159.4645 O.2     1  UNL1       -0.2512
      4 N         139.2255  142.7062  160.0878 N.am    1  UNL1       -0.1907
      5 C         139.7067  143.9010  159.3191 C.2     1  UNL1        0.2529
      6 O         140.4366  145.0809  159.8892 O.2     1  UNL1       -0.2724
      7 C         139.3299  143.7087  157.8799 C.3     1  UNL1        0.1391
      8 C         138.8895  143.3796  156.4843 C.3     1  UNL1        0.0449
      9 C         139.1765  144.3335  155.3628 C.3     1  UNL1        0.0746
     10 N         139.9038  145.6164  155.6369 N.3     1  UNL1       -0.2676
     11 C         140.3442  145.9455  157.0324 C.3     1  UNL1        0.0746
     12 C         140.0573  144.9917  158.1539 C.3     1  UNL1        0.0449
     13 C         136.0797  141.4573  154.8543 C.ar    1  UNL1        0.2293
     14 C         136.6323  142.0477  156.1177 C.ar    1  UNL1        0.0924
     15 C         138.0633  141.8047  156.4958 C.ar    1  UNL1        0.1453
     16 N         138.9419  140.9714  155.6106 N.ar    1  UNL1       -0.2084
     17 C         138.3895  140.3810  154.3472 C.ar    1  UNL1        0.2027
     18 N         136.9583  140.6239  153.9691 N.ar    1  UNL1       -0.1892
     19 C         133.5442  141.1142  155.3048 C.3     1  UNL1        0.2542
     20 O         134.6487  141.7002  154.4761 O.3     1  UNL1       -0.4560
     21 C         139.3897  142.4816  161.5617 C.ar    1  UNL1        0.0622
     22 C         138.2641  142.8038  162.4994 C.ar    1  UNL1        0.0154
     23 C         138.4283  142.5792  163.9734 C.ar    1  UNL1        0.0013
     24 C         139.7180  142.0324  164.5097 C.ar    1  UNL1        0.0001
     25 C         140.8437  141.7102  163.5720 C.ar    1  UNL1        0.0013
     26 C         140.6794  141.9348  162.0980 C.ar    1  UNL1        0.0154
     27 C         139.8822  141.8078  165.9837 C.ar    1  UNL1        0.0000
     28 C         140.4383  142.8978  166.8511 C.ar    1  UNL1        0.0007
     29 C         140.6025  142.6732  168.3251 C.ar    1  UNL1        0.0103
     30 C         140.2105  141.3584  168.9316 C.ar    1  UNL1        0.0684
     31 C         139.6544  140.2684  168.0641 C.ar    1  UNL1        0.0103
     32 C         139.4902  140.4930  166.5902 C.ar    1  UNL1        0.0007
     33 C         140.3747  141.1338  170.4055 C.1     1  UNL1        0.1004
     34 N         140.5388  140.9092  171.8795 N.1     1  UNL1       -0.1908
     35 C         140.1907  146.5703  154.5153 C.3     1  UNL1        0.1183
     36 C         139.7552  148.0019  154.6183 C.ar    1  UNL1        0.0712
     37 N         138.8713  148.4374  155.7493 N.ar    1  UNL1       -0.2471
     38 C         138.4358  149.8692  155.8523 C.ar    1  UNL1        0.0985
     39 C         138.8842  150.8653  154.8245 C.ar    1  UNL1        0.0203
     40 C         139.7682  150.4298  153.6935 C.ar    1  UNL1       -0.0015
     41 C         140.2037  148.9982  153.5905 C.ar    1  UNL1       -0.0069
     42 C         141.0876  148.5627  152.4595 C.3     1  UNL1        0.0323
@<TRIPOS>BOND
     1    19    20    1
     2    20    13    1
     3    13    14   ar
     4    14    15   ar
     5    15     1    1
     6     1     2   am
     7     2     3    2
     8     2     4   am
     9     4    21    1
    10    21    22   ar
    11    22    23   ar
    12    23    24   ar
    13    24    27    1
    14    27    28   ar
    15    28    29   ar
    16    29    30   ar
    17    30    33    1
    18    33    34    3
    19    30    31   ar
    20    31    32   ar
    21    24    25   ar
    22    25    26   ar
    23     4     5   am
    24     5     6    2
    25     5     7    1
    26     7     8    1
    27     8     9    1
    28     9    10    1
    29    10    35    1
    30    35    36    1
    31    36    37   ar
    32    37    38   ar
    33    38    39   ar
    34    39    40   ar
    35    40    41   ar
    36    41    42    1
    37    10    11    1
    38    11    12    1
    39    15    16   ar
    40    16    17   ar
    41    17    18   ar
    42    18    13   ar
    43     7     1    1
    44    41    36   ar
    45    26    21   ar
    46    12     7    1
    47    32    27   ar
@<TRIPOS>MOLECULE
*****
 42 47 0 0 0
SMALL
GASTEIGER

@<TRIPOS>ATOM
      1 N         139.7789  140.5175  157.2770 N.am    1  UNL1       -0.2222
      2 C         139.8850  141.7394  156.4133 C.2     1  UNL1        0.3219
      3 O         140.3853  141.7792  154.9997 O.2     1  UNL1       -0.2512
      4 N         139.4029  142.9144  157.2114 N.am    1  UNL1       -0.1907
      5 C         138.9989  142.4188  158.5682 C.2     1  UNL1        0.2529
      6 O         138.4575  143.2572  159.6880 O.2     1  UNL1       -0.2724
      7 C         139.2312  140.9374  158.6088 C.3     1  UNL1        0.1391
      8 C         139.5147  139.4683  158.5013 C.3     1  UNL1        0.0449
      9 C         139.2465  138.5655  159.6687 C.3     1  UNL1        0.0746
     10 N         138.6949  139.1316  160.9436 N.3     1  UNL1       -0.2676
     11 C         138.4115  140.6006  161.0510 C.3     1  UNL1        0.0746
     12 C         138.6797  141.5035  159.8837 C.3     1  UNL1        0.0449
     13 C         141.9370  137.2419  156.6749 C.ar    1  UNL1        0.2293
     14 C         141.5614  138.6384  157.0732 C.ar    1  UNL1        0.0924
     15 C         140.1545  139.1210  156.8787 C.ar    1  UNL1        0.1453
     16 N         139.1233  138.2070  156.2859 N.ar    1  UNL1       -0.2084
     17 C         139.4989  136.8106  155.8877 C.ar    1  UNL1        0.2027
     18 N         140.9058  136.3279  156.0821 N.ar    1  UNL1       -0.1892
     19 C         144.0996  136.1673  155.7168 C.3     1  UNL1        0.2542
     20 O         143.3438  136.7592  156.8693 O.3     1  UNL1       -0.4560
     21 C         139.3364  144.3355  156.7361 C.ar    1  UNL1        0.0622
     22 C         140.1389  145.3964  157.4291 C.ar    1  UNL1        0.0154
     23 C         140.0725  146.8176  156.9538 C.ar    1  UNL1        0.0013
     24 C         139.2036  147.1778  155.7854 C.ar    1  UNL1        0.0001
     25 C         138.4010  146.1168  155.0922 C.ar    1  UNL1        0.0013
     26 C         138.4675  144.6957  155.5676 C.ar    1  UNL1        0.0154
     27 C         139.1371  148.5989  155.3100 C.ar    1  UNL1        0.0000
     28 C         139.6667  148.9619  153.9544 C.ar    1  UNL1        0.0007
     29 C         139.6003  150.3830  153.4790 C.ar    1  UNL1        0.0103
     30 C         139.0043  151.4412  154.3594 C.ar    1  UNL1        0.0684
     31 C         138.4747  151.0782  155.7151 C.ar    1  UNL1        0.0103
     32 C         138.5411  149.6572  156.1904 C.ar    1  UNL1        0.0007
     33 C         138.9378  152.8623  153.8841 C.1     1  UNL1        0.1004
     34 N         138.8714  154.2835  153.4087 N.1     1  UNL1       -0.1908
     35 C         138.4268  138.2286  162.1110 C.3     1  UNL1        0.1183
     36 C         138.9358  138.5936  163.4739 C.ar    1  UNL1        0.0712
     37 N         138.1000  139.4443  164.3837 N.ar    1  UNL1       -0.2471
     38 C         138.6091  139.8093  165.7467 C.ar    1  UNL1        0.0985
     39 C         139.9539  139.3236  166.1999 C.ar    1  UNL1        0.0203
     40 C         140.7898  138.4729  165.2901 C.ar    1  UNL1       -0.0015
     41 C         140.2807  138.1079  163.9271 C.ar    1  UNL1       -0.0069
     42 C         141.1165  137.2572  163.0174 C.3     1  UNL1        0.0323
@<TRIPOS>BOND
     1    19    20    1
     2    20    13    1
     3    13    14   ar
     4    14    15   ar
     5    15     1    1
     6     1     2   am
     7     2     3    2
     8     2     4   am
     9     4    21    1
    10    21    22   ar
    11    22    23   ar
    12    23    24   ar
    13    24    27    1
    14    27    28   ar
    15    28    29   ar
    16    29    30   ar
    17    30    33    1
    18    33    34    3
    19    30    31   ar
    20    31    32   ar
    21    24    25   ar
    22    25    26   ar
    23     4     5   am
    24     5     6    2
    25     5     7    1
    26     7     8    1
    27     8     9    1
    28     9    10    1
    29    10    35    1
    30    35    36    1
    31    36    37   ar
    32    37    38   ar
    33    38    39   ar
    34    39    40   ar
    35    40    41   ar
    36    41    42    1
    37    10    11    1
    38    11    12    1
    39    15    16   ar
    40    16    17   ar
    41    17    18   ar
    42    18    13   ar
    43     7     1    1
    44    41    36   ar
    45    26    21   ar
    46    12     7    1
    47    32    27   ar
@<TRIPOS>MOLECULE
*****
 42 47 0 0 0
SMALL
GASTEIGER

@<TRIPOS>ATOM
      1 N         143.8155  140.9373  158.3603 N.am    1  UNL1       -0.2222
      2 C         143.6491  141.5749  159.7079 C.2     1  UNL1        0.3219
      3 O         143.9981  142.9899  160.0630 O.2     1  UNL1       -0.2512
      4 N         143.0725  140.5491  160.6381 N.am    1  UNL1       -0.1907
      5 C         142.8824  139.2775  159.8654 C.2     1  UNL1        0.2529
      6 O         142.3302  137.9917  160.4055 O.2     1  UNL1       -0.2724
      7 C         143.3416  139.5175  158.4576 C.3     1  UNL1        0.1391
      8 C         143.8348  139.9040  157.0948 C.3     1  UNL1        0.0449
      9 C         143.8223  138.9004  155.9802 C.3     1  UNL1        0.0746
     10 N         143.3167  137.5101  156.2284 N.3     1  UNL1       -0.2676
     11 C         142.8236  137.1236  157.5912 C.3     1  UNL1        0.0746
     12 C         142.8360  138.1272  158.7058 C.3     1  UNL1        0.0449
     13 C         146.3825  142.2754  155.6456 C.ar    1  UNL1        0.2293
     14 C         145.8379  141.6099  156.8746 C.ar    1  UNL1        0.0924
     15 C         144.3600  141.6028  157.1313 C.ar    1  UNL1        0.1453
     16 N         143.4268  142.2612  156.1589 N.ar    1  UNL1       -0.2084
     17 C         143.9712  142.9267  154.9299 C.ar    1  UNL1        0.2027
     18 N         145.4492  142.9338  154.6732 N.ar    1  UNL1       -0.1892
     19 C         148.3778  142.1902  153.9840 C.3     1  UNL1        0.2542
     20 O         147.8603  142.2826  155.3889 O.3     1  UNL1       -0.4560
     21 C         142.7436  140.7580  162.0865 C.ar    1  UNL1        0.0622
     22 C         143.6294  140.1765  163.1482 C.ar    1  UNL1        0.0154
     23 C         143.3005  140.3855  164.5967 C.ar    1  UNL1        0.0013
     24 C         142.0859  141.1761  164.9835 C.ar    1  UNL1        0.0001
     25 C         141.2000  141.7577  163.9218 C.ar    1  UNL1        0.0013
     26 C         141.5290  141.5486  162.4733 C.ar    1  UNL1        0.0154
     27 C         141.7570  141.3851  166.4320 C.ar    1  UNL1        0.0000
     28 C         140.4704  140.8560  166.9929 C.ar    1  UNL1        0.0007
     29 C         140.1415  141.0650  168.4415 C.ar    1  UNL1        0.0103
     30 C         141.0993  141.8032  169.3290 C.ar    1  UNL1        0.0684
     31 C         142.3860  142.3323  168.7681 C.ar    1  UNL1        0.0103
     32 C         142.7148  142.1233  167.3197 C.ar    1  UNL1        0.0007
     33 C         140.7705  142.0122  170.7775 C.1     1  UNL1        0.1004
     34 N         140.4416  142.2212  172.2260 N.1     1  UNL1       -0.1908
     35 C         143.3043  136.5064  155.1136 C.3     1  UNL1        0.1183
     36 C         142.9721  135.0720  155.3997 C.ar    1  UNL1        0.0712
     37 N         143.9811  134.1879  156.0709 N.ar    1  UNL1       -0.2471
     38 C         143.6489  132.7534  156.3570 C.ar    1  UNL1        0.0985
     39 C         142.3077  132.2029  155.9718 C.ar    1  UNL1        0.0203
     40 C         141.2988  133.0869  155.3006 C.ar    1  UNL1       -0.0015
     41 C         141.6309  134.5214  155.0146 C.ar    1  UNL1       -0.0069
     42 C         140.6220  135.4055  154.3434 C.3     1  UNL1        0.0323
@<TRIPOS>BOND
     1    19    20    1
     2    20    13    1
     3    13    14   ar
     4    14    15   ar
     5    15     1    1
     6     1     2   am
     7     2     3    2
     8     2     4   am
     9     4    21    1
    10    21    22   ar
    11    22    23   ar
    12    23    24   ar
    13    24    27    1
    14    27    28   ar
    15    28    29   ar
    16    29    30   ar
    17    30    33    1
    18    33    34    3
    19    30    31   ar
    20    31    32   ar
    21    24    25   ar
    22    25    26   ar
    23     4     5   am
    24     5     6    2
    25     5     7    1
    26     7     8    1
    27     8     9    1
    28     9    10    1
    29    10    35    1
    30    35    36    1
    31    36    37   ar
    32    37    38   ar
    33    38    39   ar
    34    39    40   ar
    35    40    41   ar
    36    41    42    1
    37    10    11    1
    38    11    12    1
    39    15    16   ar
    40    16    17   ar
    41    17    18   ar
    42    18    13   ar
    43     7     1    1
    44    41    36   ar
    45    26    21   ar
    46    12     7    1
    47    32    27   ar
@<TRIPOS>MOLECULE
*****
 42 47 0 0 0
SMALL
GASTEIGER

@<TRIPOS>ATOM
      1 N         138.5663  142.4962  157.7854 N.am    1  UNL1       -0.2222
      2 C         138.4907  141.8698  159.1464 C.2     1  UNL1        0.3219
      3 O         137.8168  140.5728  159.4838 O.2     1  UNL1       -0.2512
      4 N         139.2072  142.7681  160.1106 N.am    1  UNL1       -0.1907
      5 C         139.7256  143.9497  159.3456 C.2     1  UNL1        0.2529
      6 O         140.5035  145.0977  159.9172 O.2     1  UNL1       -0.2724
      7 C         139.3296  143.7816  157.9086 C.3     1  UNL1        0.1391
      8 C         138.8652  143.4789  156.5148 C.3     1  UNL1        0.0449
      9 C         139.1776  144.4293  155.3972 C.3     1  UNL1        0.0746
     10 N         139.9542  145.6825  155.6734 N.3     1  UNL1       -0.2676
     11 C         140.4186  145.9853  157.0672 C.3     1  UNL1        0.0746
     12 C         140.1062  145.0348  158.1848 C.3     1  UNL1        0.0449
     13 C         138.1701  140.3727  154.4562 C.ar    1  UNL1        0.2293
     14 C         138.7550  140.9333  155.7186 C.ar    1  UNL1        0.0924
     15 C         137.9814  141.9355  156.5231 C.ar    1  UNL1        0.1453
     16 N         136.6230  142.3771  156.0652 N.ar    1  UNL1       -0.2084
     17 C         136.0380  141.8165  154.8029 C.ar    1  UNL1        0.2027
     18 N         136.8117  140.8142  153.9983 N.ar    1  UNL1       -0.1892
     19 C         138.5869  137.9153  153.7233 C.3     1  UNL1        0.2542
     20 O         138.9436  139.3705  153.6517 O.3     1  UNL1       -0.4560
     21 C         139.3756  142.5272  161.5814 C.ar    1  UNL1        0.0622
     22 C         138.1921  142.6247  162.4978 C.ar    1  UNL1        0.0154
     23 C         138.3605  142.3838  163.9687 C.ar    1  UNL1        0.0013
     24 C         139.7125  142.0454  164.5233 C.ar    1  UNL1        0.0001
     25 C         140.8962  141.9479  163.6069 C.ar    1  UNL1        0.0013
     26 C         140.7276  142.1888  162.1360 C.ar    1  UNL1        0.0154
     27 C         139.8810  141.8044  165.9942 C.ar    1  UNL1        0.0000
     28 C         140.4337  142.8871  166.8730 C.ar    1  UNL1        0.0007
     29 C         140.6022  142.6462  168.3440 C.ar    1  UNL1        0.0103
     30 C         140.2179  141.3225  168.9359 C.ar    1  UNL1        0.0684
     31 C         139.6652  140.2399  168.0571 C.ar    1  UNL1        0.0103
     32 C         139.4967  140.4808  166.5862 C.ar    1  UNL1        0.0007
     33 C         140.3863  141.0816  170.4069 C.1     1  UNL1        0.1004
     34 N         140.5548  140.8407  171.8778 N.1     1  UNL1       -0.1908
     35 C         140.2666  146.6330  154.5558 C.3     1  UNL1        0.1183
     36 C         139.7966  148.0556  154.6277 C.ar    1  UNL1        0.0712
     37 N         138.9049  148.4951  155.7509 N.ar    1  UNL1       -0.2471
     38 C         138.4349  149.9178  155.8228 C.ar    1  UNL1        0.0985
     39 C         138.8566  150.9010  154.7714 C.ar    1  UNL1        0.0203
     40 C         139.7483  150.4615  153.6481 C.ar    1  UNL1       -0.0015
     41 C         140.2183  149.0389  153.5762 C.ar    1  UNL1       -0.0069
     42 C         141.1100  148.5995  152.4529 C.3     1  UNL1        0.0323
@<TRIPOS>BOND
     1    19    20    1
     2    20    13    1
     3    13    14   ar
     4    14    15   ar
     5    15     1    1
     6     1     2   am
     7     2     3    2
     8     2     4   am
     9     4    21    1
    10    21    22   ar
    11    22    23   ar
    12    23    24   ar
    13    24    27    1
    14    27    28   ar
    15    28    29   ar
    16    29    30   ar
    17    30    33    1
    18    33    34    3
    19    30    31   ar
    20    31    32   ar
    21    24    25   ar
    22    25    26   ar
    23     4     5   am
    24     5     6    2
    25     5     7    1
    26     7     8    1
    27     8     9    1
    28     9    10    1
    29    10    35    1
    30    35    36    1
    31    36    37   ar
    32    37    38   ar
    33    38    39   ar
    34    39    40   ar
    35    40    41   ar
    36    41    42    1
    37    10    11    1
    38    11    12    1
    39    15    16   ar
    40    16    17   ar
    41    17    18   ar
    42    18    13   ar
    43     7     1    1
    44    41    36   ar
    45    26    21   ar
    46    12     7    1
    47    32    27   ar
@<TRIPOS>MOLECULE
*****
 42 47 0 0 0
SMALL
GASTEIGER

@<TRIPOS>ATOM
      1 N         138.6151  141.0250  158.0849 N.am    1  UNL1       -0.2222
      2 C         138.5255  141.6048  159.4655 C.2     1  UNL1        0.3219
      3 O         137.8399  142.8849  159.8414 O.2     1  UNL1       -0.2512
      4 N         139.2419  140.6797  160.4041 N.am    1  UNL1       -0.1907
      5 C         139.7742  139.5282  159.6037 C.2     1  UNL1        0.2529
      6 O         140.5565  138.3671  160.1420 O.2     1  UNL1       -0.2724
      7 C         139.3869  139.7416  158.1703 C.3     1  UNL1        0.1391
      8 C         138.9300  140.0877  156.7841 C.3     1  UNL1        0.0449
      9 C         139.2570  139.1776  155.6376 C.3     1  UNL1        0.0746
     10 N         140.0408  137.9213  155.8772 N.3     1  UNL1       -0.2676
     11 C         140.4977  137.5752  157.2633 C.3     1  UNL1        0.0746
     12 C         140.1707  138.4854  158.4099 C.3     1  UNL1        0.0449
     13 C         136.0301  141.9394  155.2159 C.ar    1  UNL1        0.2293
     14 C         136.6103  141.3408  156.4629 C.ar    1  UNL1        0.0924
     15 C         138.0349  141.6236  156.8379 C.ar    1  UNL1        0.1453
     16 N         138.8792  142.5050  155.9659 N.ar    1  UNL1       -0.2084
     17 C         138.2990  143.1036  154.7190 C.ar    1  UNL1        0.2027
     18 N         136.8744  142.8208  154.3439 N.ar    1  UNL1       -0.1892
     19 C         133.7743  140.7405  155.6892 C.3     1  UNL1        0.2542
     20 O         134.6056  141.6566  154.8408 O.3     1  UNL1       -0.4560
     21 C         139.3984  140.8722  161.8834 C.ar    1  UNL1        0.0622
     22 C         138.1927  140.8434  162.7752 C.ar    1  UNL1        0.0154
     23 C         138.3492  141.0360  164.2545 C.ar    1  UNL1        0.0013
     24 C         139.7115  141.2573  164.8421 C.ar    1  UNL1        0.0001
     25 C         140.9173  141.2862  163.9502 C.ar    1  UNL1        0.0013
     26 C         140.7607  141.0936  162.4709 C.ar    1  UNL1        0.0154
     27 C         139.8680  141.4499  166.3214 C.ar    1  UNL1        0.0000
     28 C         139.5300  140.3324  167.2631 C.ar    1  UNL1        0.0007
     29 C         139.6866  140.5249  168.7425 C.ar    1  UNL1        0.0103
     30 C         140.1811  141.8351  169.2800 C.ar    1  UNL1        0.0684
     31 C         140.5191  142.9526  168.3383 C.ar    1  UNL1        0.0103
     32 C         140.3626  142.7601  166.8590 C.ar    1  UNL1        0.0007
     33 C         140.3377  142.0276  170.7593 C.1     1  UNL1        0.1004
     34 N         140.4942  142.2202  172.2387 N.1     1  UNL1       -0.1908
     35 C         140.3678  137.0111  154.7305 C.3     1  UNL1        0.1183
     36 C         141.3341  135.8801  154.9227 C.ar    1  UNL1        0.0712
     37 N         140.8251  134.4787  155.0875 N.ar    1  UNL1       -0.2471
     38 C         141.7914  133.3476  155.2797 C.ar    1  UNL1        0.0985
     39 C         143.2666  133.6178  155.3071 C.ar    1  UNL1        0.0203
     40 C         143.7755  135.0192  155.1423 C.ar    1  UNL1       -0.0015
     41 C         142.8093  136.1503  154.9501 C.ar    1  UNL1       -0.0069
     42 C         143.3182  137.5517  154.7853 C.3     1  UNL1        0.0323
@<TRIPOS>BOND
     1    19    20    1
     2    20    13    1
     3    13    14   ar
     4    14    15   ar
     5    15     1    1
     6     1     2   am
     7     2     3    2
     8     2     4   am
     9     4    21    1
    10    21    22   ar
    11    22    23   ar
    12    23    24   ar
    13    24    27    1
    14    27    28   ar
    15    28    29   ar
    16    29    30   ar
    17    30    33    1
    18    33    34    3
    19    30    31   ar
    20    31    32   ar
    21    24    25   ar
    22    25    26   ar
    23     4     5   am
    24     5     6    2
    25     5     7    1
    26     7     8    1
    27     8     9    1
    28     9    10    1
    29    10    35    1
    30    35    36    1
    31    36    37   ar
    32    37    38   ar
    33    38    39   ar
    34    39    40   ar
    35    40    41   ar
    36    41    42    1
    37    10    11    1
    38    11    12    1
    39    15    16   ar
    40    16    17   ar
    41    17    18   ar
    42    18    13   ar
    43     7     1    1
    44    41    36   ar
    45    26    21   ar
    46    12     7    1
    47    32    27   ar
@<TRIPOS>MOLECULE
*****
 42 47 0 0 0
SMALL
GASTEIGER

@<TRIPOS>ATOM
      1 N         141.9137  138.4051  158.4140 N.am    1  UNL1       -0.2222
      2 C         142.2452  138.5360  159.8711 C.2     1  UNL1        0.3219
      3 O         143.4780  138.0113  160.5454 O.2     1  UNL1       -0.2512
      4 N         141.1273  139.2838  160.5354 N.am    1  UNL1       -0.1907
      5 C         140.1050  139.6150  159.4889 C.2     1  UNL1        0.2529
      6 O         138.8220  140.3588  159.7140 O.2     1  UNL1       -0.2724
      7 C         140.5910  139.0720  158.1778 C.3     1  UNL1        0.1391
      8 C         141.2032  138.4771  156.9444 C.3     1  UNL1        0.0449
      9 C         140.4914  138.5824  155.6283 C.3     1  UNL1        0.0746
     10 N         139.1675  139.2827  155.5455 N.3     1  UNL1       -0.2676
     11 C         138.5553  139.8776  156.7789 C.3     1  UNL1        0.0746
     12 C         139.2671  139.7722  158.0950 C.3     1  UNL1        0.0449
     13 C         143.5172  135.5609  156.1582 C.ar    1  UNL1        0.2293
     14 C         142.6740  136.2395  157.1967 C.ar    1  UNL1        0.0924
     15 C         142.7569  137.7265  157.3755 C.ar    1  UNL1        0.1453
     16 N         143.6829  138.5348  156.5158 N.ar    1  UNL1       -0.2084
     17 C         144.5260  137.8563  155.4773 C.ar    1  UNL1        0.2027
     18 N         144.4432  136.3692  155.2985 N.ar    1  UNL1       -0.1892
     19 C         143.3536  133.1776  157.1793 C.3     1  UNL1        0.2542
     20 O         143.4344  134.0739  155.9793 O.3     1  UNL1       -0.4560
     21 C         141.0461  139.6381  161.9906 C.ar    1  UNL1        0.0622
     22 C         140.9801  138.5530  163.0242 C.ar    1  UNL1        0.0154
     23 C         140.8988  138.9074  164.4795 C.ar    1  UNL1        0.0013
     24 C         140.8836  140.3468  164.9012 C.ar    1  UNL1        0.0001
     25 C         140.9496  141.4319  163.8676 C.ar    1  UNL1        0.0013
     26 C         141.0308  141.0775  162.4124 C.ar    1  UNL1        0.0154
     27 C         140.8023  140.7011  166.3565 C.ar    1  UNL1        0.0000
     28 C         141.6852  141.7764  166.9170 C.ar    1  UNL1        0.0007
     29 C         141.6040  142.1308  168.3723 C.ar    1  UNL1        0.0103
     30 C         140.6398  141.4097  169.2670 C.ar    1  UNL1        0.0684
     31 C         139.7569  140.3344  168.7065 C.ar    1  UNL1        0.0103
     32 C         139.8382  139.9801  167.2513 C.ar    1  UNL1        0.0007
     33 C         140.5586  141.7640  170.7223 C.1     1  UNL1        0.1004
     34 N         140.4773  142.1184  172.1776 N.1     1  UNL1       -0.1908
     35 C         138.4558  139.3880  154.2293 C.3     1  UNL1        0.1183
     36 C         137.0648  139.9462  154.1714 C.ar    1  UNL1        0.0712
     37 N         135.9456  139.2466  154.8842 N.ar    1  UNL1       -0.2471
     38 C         134.5545  139.8049  154.8263 C.ar    1  UNL1        0.0985
     39 C         134.2826  141.0627  154.0556 C.ar    1  UNL1        0.0203
     40 C         135.4018  141.7622  153.3427 C.ar    1  UNL1       -0.0015
     41 C         136.7928  141.2040  153.4006 C.ar    1  UNL1       -0.0069
     42 C         137.9119  141.9036  152.6878 C.3     1  UNL1        0.0323
@<TRIPOS>BOND
     1    19    20    1
     2    20    13    1
     3    13    14   ar
     4    14    15   ar
     5    15     1    1
     6     1     2   am
     7     2     3    2
     8     2     4   am
     9     4    21    1
    10    21    22   ar
    11    22    23   ar
    12    23    24   ar
    13    24    27    1
    14    27    28   ar
    15    28    29   ar
    16    29    30   ar
    17    30    33    1
    18    33    34    3
    19    30    31   ar
    20    31    32   ar
    21    24    25   ar
    22    25    26   ar
    23     4     5   am
    24     5     6    2
    25     5     7    1
    26     7     8    1
    27     8     9    1
    28     9    10    1
    29    10    35    1
    30    35    36    1
    31    36    37   ar
    32    37    38   ar
    33    38    39   ar
    34    39    40   ar
    35    40    41   ar
    36    41    42    1
    37    10    11    1
    38    11    12    1
    39    15    16   ar
    40    16    17   ar
    41    17    18   ar
    42    18    13   ar
    43     7     1    1
    44    41    36   ar
    45    26    21   ar
    46    12     7    1
    47    32    27   ar
@<TRIPOS>MOLECULE
*****
 42 47 0 0 0
SMALL
GASTEIGER

@<TRIPOS>ATOM
      1 N         141.8264  138.6947  158.2836 N.am    1  UNL1       -0.2222
      2 C         141.2655  138.7043  159.6748 C.2     1  UNL1        0.3219
      3 O         140.0862  137.9119  160.1555 O.2     1  UNL1       -0.2512
      4 N         142.0912  139.6456  160.5009 N.am    1  UNL1       -0.1907
      5 C         143.1623  140.2176  159.6203 C.2     1  UNL1        0.2529
      6 O         144.2127  141.2041  160.0368 O.2     1  UNL1       -0.2724
      7 C         142.9987  139.6299  158.2499 C.3     1  UNL1        0.1391
      8 C         142.7127  138.9626  156.9373 C.3     1  UNL1        0.0449
      9 C         143.5707  139.2583  155.7430 C.3     1  UNL1        0.0746
     10 N         144.7147  140.2213  155.8613 N.3     1  UNL1       -0.2676
     11 C         145.0007  140.8886  157.1738 C.3     1  UNL1        0.0746
     12 C         144.1427  140.5929  158.3681 C.3     1  UNL1        0.0449
     13 C         141.3439  135.7221  155.6989 C.ar    1  UNL1        0.2293
     14 C         141.8640  136.5259  156.8536 C.ar    1  UNL1        0.0924
     15 C         141.3064  137.8909  157.1288 C.ar    1  UNL1        0.1453
     16 N         140.2286  138.4521  156.2493 N.ar    1  UNL1       -0.2084
     17 C         139.7085  137.6484  155.0946 C.ar    1  UNL1        0.2027
     18 N         140.2662  136.2833  154.8194 N.ar    1  UNL1       -0.1892
     19 C         142.7887  133.6917  156.4337 C.3     1  UNL1        0.2542
     20 O         141.9015  134.3570  155.4236 O.3     1  UNL1       -0.4560
     21 C         141.8824  139.9596  161.9526 C.ar    1  UNL1        0.0622
     22 C         142.3594  139.0014  163.0034 C.ar    1  UNL1        0.0154
     23 C         142.1506  139.3155  164.4553 C.ar    1  UNL1        0.0013
     24 C         141.4647  140.5878  164.8563 C.ar    1  UNL1        0.0001
     25 C         140.9876  141.5461  163.8055 C.ar    1  UNL1        0.0013
     26 C         141.1965  141.2319  162.3537 C.ar    1  UNL1        0.0154
     27 C         141.2559  140.9018  166.3081 C.ar    1  UNL1        0.0000
     28 C         142.0628  141.9820  166.9654 C.ar    1  UNL1        0.0007
     29 C         141.8540  142.2961  168.4172 C.ar    1  UNL1        0.0103
     30 C         140.8382  141.5299  169.2117 C.ar    1  UNL1        0.0684
     31 C         140.0313  140.4497  168.5544 C.ar    1  UNL1        0.0103
     32 C         140.2401  140.1357  167.1027 C.ar    1  UNL1        0.0007
     33 C         140.6294  141.8439  170.6635 C.1     1  UNL1        0.1004
     34 N         140.4205  142.1580  172.1153 N.1     1  UNL1       -0.1908
     35 C         145.5727  140.5169  154.6669 C.3     1  UNL1        0.1183
     36 C         145.8379  141.9381  154.2673 C.ar    1  UNL1        0.0712
     37 N         144.7754  142.7306  153.5650 N.ar    1  UNL1       -0.2471
     38 C         145.0408  144.1519  153.1655 C.ar    1  UNL1        0.0985
     39 C         146.3685  144.7807  153.4682 C.ar    1  UNL1        0.0203
     40 C         147.4310  143.9882  154.1704 C.ar    1  UNL1       -0.0015
     41 C         147.1657  142.5670  154.5700 C.ar    1  UNL1       -0.0069
     42 C         148.2282  141.7746  155.2722 C.3     1  UNL1        0.0323
@<TRIPOS>BOND
     1    19    20    1
     2    20    13    1
     3    13    14   ar
     4    14    15   ar
     5    15     1    1
     6     1     2   am
     7     2     3    2
     8     2     4   am
     9     4    21    1
    10    21    22   ar
    11    22    23   ar
    12    23    24   ar
    13    24    27    1
    14    27    28   ar
    15    28    29   ar
    16    29    30   ar
    17    30    33    1
    18    33    34    3
    19    30    31   ar
    20    31    32   ar
    21    24    25   ar
    22    25    26   ar
    23     4     5   am
    24     5     6    2
    25     5     7    1
    26     7     8    1
    27     8     9    1
    28     9    10    1
    29    10    35    1
    30    35    36    1
    31    36    37   ar
    32    37    38   ar
    33    38    39   ar
    34    39    40   ar
    35    40    41   ar
    36    41    42    1
    37    10    11    1
    38    11    12    1
    39    15    16   ar
    40    16    17   ar
    41    17    18   ar
    42    18    13   ar
    43     7     1    1
    44    41    36   ar
    45    26    21   ar
    46    12     7    1
    47    32    27   ar
@<TRIPOS>MOLECULE
*****
 42 47 0 0 0
SMALL
GASTEIGER

@<TRIPOS>ATOM
      1 N         139.7844  140.0403  158.0108 N.am    1  UNL1       -0.2222
      2 C         139.4240  140.5784  159.3639 C.2     1  UNL1        0.3219
      3 O         138.2994  141.5239  159.6658 O.2     1  UNL1       -0.2512
      4 N         140.3858  140.0048  160.3620 N.am    1  UNL1       -0.1907
      5 C         141.3405  139.1123  159.6258 C.2     1  UNL1        0.2529
      6 O         142.4688  138.3345  160.2356 O.2     1  UNL1       -0.2724
      7 C         140.9689  139.1343  158.1727 C.3     1  UNL1        0.1391
      8 C         140.4817  139.2549  156.7592 C.3     1  UNL1        0.0449
      9 C         141.1731  138.5029  155.6608 C.3     1  UNL1        0.0746
     10 N         142.3516  137.6301  155.9760 N.3     1  UNL1       -0.2676
     11 C         142.8388  137.5095  157.3896 C.3     1  UNL1        0.0746
     12 C         142.1474  138.2615  158.4879 C.3     1  UNL1        0.0449
     13 C         138.7736  141.8793  154.6424 C.ar    1  UNL1        0.2293
     14 C         139.4746  141.5662  155.9310 C.ar    1  UNL1        0.0924
     15 C         139.0834  140.3534  156.7222 C.ar    1  UNL1        0.1453
     16 N         137.9912  139.4536  156.2246 N.ar    1  UNL1       -0.2084
     17 C         137.2902  139.7666  154.9361 C.ar    1  UNL1        0.2027
     18 N         137.6815  140.9795  154.1449 N.ar    1  UNL1       -0.1892
     19 C         139.0118  144.4592  154.4494 C.3     1  UNL1        0.2542
     20 O         139.1648  143.0921  153.8512 O.3     1  UNL1       -0.4560
     21 C         140.3917  140.2761  161.8371 C.ar    1  UNL1        0.0622
     22 C         139.2454  139.8170  162.6888 C.ar    1  UNL1        0.0154
     23 C         139.2514  140.0884  164.1640 C.ar    1  UNL1        0.0013
     24 C         140.4036  140.8188  164.7877 C.ar    1  UNL1        0.0001
     25 C         141.5499  141.2779  163.9360 C.ar    1  UNL1        0.0013
     26 C         141.5439  141.0065  162.4608 C.ar    1  UNL1        0.0154
     27 C         140.4095  141.0901  166.2629 C.ar    1  UNL1        0.0000
     28 C         140.7451  142.4605  166.7721 C.ar    1  UNL1        0.0007
     29 C         140.7511  142.7318  168.2474 C.ar    1  UNL1        0.0103
     30 C         140.4214  141.6326  169.2134 C.ar    1  UNL1        0.0684
     31 C         140.0858  140.2622  168.7042 C.ar    1  UNL1        0.0103
     32 C         140.0799  139.9909  167.2290 C.ar    1  UNL1        0.0007
     33 C         140.4273  141.9039  170.6886 C.1     1  UNL1        0.1004
     34 N         140.4333  142.1753  172.1639 N.1     1  UNL1       -0.1908
     35 C         143.0430  136.8781  154.8776 C.3     1  UNL1        0.1183
     36 C         143.0913  135.3792  154.9101 C.ar    1  UNL1        0.0712
     37 N         143.8786  134.6771  155.9765 N.ar    1  UNL1       -0.2471
     38 C         143.9268  133.1781  156.0089 C.ar    1  UNL1        0.0985
     39 C         143.1879  132.3815  154.9748 C.ar    1  UNL1        0.0203
     40 C         142.4006  133.0836  153.9084 C.ar    1  UNL1       -0.0015
     41 C         142.3524  134.5825  153.8760 C.ar    1  UNL1       -0.0069
     42 C         141.5651  135.2846  152.8096 C.3     1  UNL1        0.0323
@<TRIPOS>BOND
     1    19    20    1
     2    20    13    1
     3    13    14   ar
     4    14    15   ar
     5    15     1    1
     6     1     2   am
     7     2     3    2
     8     2     4   am
     9     4    21    1
    10    21    22   ar
    11    22    23   ar
    12    23    24   ar
    13    24    27    1
    14    27    28   ar
    15    28    29   ar
    16    29    30   ar
    17    30    33    1
    18    33    34    3
    19    30    31   ar
    20    31    32   ar
    21    24    25   ar
    22    25    26   ar
    23     4     5   am
    24     5     6    2
    25     5     7    1
    26     7     8    1
    27     8     9    1
    28     9    10    1
    29    10    35    1
    30    35    36    1
    31    36    37   ar
    32    37    38   ar
    33    38    39   ar
    34    39    40   ar
    35    40    41   ar
    36    41    42    1
    37    10    11    1
    38    11    12    1
    39    15    16   ar
    40    16    17   ar
    41    17    18   ar
    42    18    13   ar
    43     7     1    1
    44    41    36   ar
    45    26    21   ar
    46    12     7    1
    47    32    27   ar
@<TRIPOS>MOLECULE
*****
 42 47 0 0 0
SMALL
GASTEIGER

@<TRIPOS>ATOM
      1 N         141.8388  138.5242  158.4413 N.am    1  UNL1       -0.2222
      2 C         141.2990  138.5364  159.8408 C.2     1  UNL1        0.3219
      3 O         140.1712  137.6935  160.3582 O.2     1  UNL1       -0.2512
      4 N         142.0849  139.5396  160.6320 N.am    1  UNL1       -0.1907
      5 C         143.1105  140.1473  159.7216 C.2     1  UNL1        0.2529
      6 O         144.1122  141.1981  160.0987 O.2     1  UNL1       -0.2724
      7 C         142.9584  139.5198  158.3676 C.3     1  UNL1        0.1391
      8 C         142.6892  138.8075  157.0752 C.3     1  UNL1        0.0449
      9 C         143.5122  139.1206  155.8609 C.3     1  UNL1        0.0746
     10 N         144.6043  140.1459  155.9389 N.3     1  UNL1       -0.2676
     11 C         144.8735  140.8581  157.2313 C.3     1  UNL1        0.0746
     12 C         144.0505  140.5451  158.4456 C.3     1  UNL1        0.0449
     13 C         139.5740  137.1576  155.4828 C.ar    1  UNL1        0.2293
     14 C         140.0672  138.0149  156.6105 C.ar    1  UNL1        0.0924
     15 C         141.3457  137.6669  157.3135 C.ar    1  UNL1        0.1453
     16 N         142.1310  136.4615  156.8889 N.ar    1  UNL1       -0.2084
     17 C         141.6380  135.6042  155.7612 C.ar    1  UNL1        0.2027
     18 N         140.3594  135.9522  155.0581 N.ar    1  UNL1       -0.1892
     19 C         138.1824  137.3228  153.2951 C.3     1  UNL1        0.2542
     20 O         138.2956  137.5055  154.7796 O.3     1  UNL1       -0.4560
     21 C         141.8811  139.8760  162.0794 C.ar    1  UNL1        0.0622
     22 C         142.9559  139.5684  163.0795 C.ar    1  UNL1        0.0154
     23 C         142.7521  139.9048  164.5270 C.ar    1  UNL1        0.0013
     24 C         141.4734  140.5487  164.9745 C.ar    1  UNL1        0.0001
     25 C         140.3985  140.8563  163.9744 C.ar    1  UNL1        0.0013
     26 C         140.6024  140.5199  162.5269 C.ar    1  UNL1        0.0154
     27 C         141.2696  140.8851  166.4220 C.ar    1  UNL1        0.0000
     28 C         140.1851  140.2055  167.2044 C.ar    1  UNL1        0.0007
     29 C         139.9813  140.5419  168.6520 C.ar    1  UNL1        0.0103
     30 C         140.8619  141.5579  169.3170 C.ar    1  UNL1        0.0684
     31 C         141.9464  142.2375  168.5346 C.ar    1  UNL1        0.0103
     32 C         142.1502  141.9012  167.0871 C.ar    1  UNL1        0.0007
     33 C         140.6581  141.8943  170.7645 C.1     1  UNL1        0.1004
     34 N         140.4542  142.2307  172.2120 N.1     1  UNL1       -0.1908
     35 C         145.4273  140.4589  154.7245 C.3     1  UNL1        0.1183
     36 C         145.6754  141.8858  154.3341 C.ar    1  UNL1        0.0712
     37 N         144.6077  142.6664  153.6265 N.ar    1  UNL1       -0.2471
     38 C         144.8559  144.0933  153.2361 C.ar    1  UNL1        0.0985
     39 C         146.1718  144.7396  153.5532 C.ar    1  UNL1        0.0203
     40 C         147.2396  143.9590  154.2608 C.ar    1  UNL1       -0.0015
     41 C         146.9914  142.5322  154.6512 C.ar    1  UNL1       -0.0069
     42 C         148.0592  141.7516  155.3587 C.3     1  UNL1        0.0323
@<TRIPOS>BOND
     1    19    20    1
     2    20    13    1
     3    13    14   ar
     4    14    15   ar
     5    15     1    1
     6     1     2   am
     7     2     3    2
     8     2     4   am
     9     4    21    1
    10    21    22   ar
    11    22    23   ar
    12    23    24   ar
    13    24    27    1
    14    27    28   ar
    15    28    29   ar
    16    29    30   ar
    17    30    33    1
    18    33    34    3
    19    30    31   ar
    20    31    32   ar
    21    24    25   ar
    22    25    26   ar
    23     4     5   am
    24     5     6    2
    25     5     7    1
    26     7     8    1
    27     8     9    1
    28     9    10    1
    29    10    35    1
    30    35    36    1
    31    36    37   ar
    32    37    38   ar
    33    38    39   ar
    34    39    40   ar
    35    40    41   ar
    36    41    42    1
    37    10    11    1
    38    11    12    1
    39    15    16   ar
    40    16    17   ar
    41    17    18   ar
    42    18    13   ar
    43     7     1    1
    44    41    36   ar
    45    26    21   ar
    46    12     7    1
    47    32    27   ar
