@<TRIPOS>MOLECULE
*****
 30 34 0 0 0
SMALL
GASTEIGER

@<TRIPOS>ATOM
      1 C         140.4736  141.5442  167.5252 C.ar    1  UNL1        0.1346
      2 C         139.9394  140.1799  167.2037 C.ar    1  UNL1        0.0500
      3 C         139.5141  139.8518  165.8031 C.ar    1  UNL1        0.0752
      4 N         139.6230  140.8880  164.7241 N.ar    1  UNL1       -0.2302
      5 C         140.1571  142.2524  165.0456 C.ar    1  UNL1        0.1603
      6 N         140.5824  142.5805  166.4462 N.ar    1  UNL1       -0.2122
      7 C         140.2660  143.2887  163.9666 C.2     1  UNL1        0.0332
      8 C         139.0622  144.0938  163.5757 C.2     1  UNL1        0.0501
      9 C         139.1710  145.1299  162.4967 C.2     1  UNL1        0.2355
     10 N         140.4837  145.3611  161.8084 N.2     1  UNL1       -0.0341
     11 C         141.6874  144.5560  162.1993 C.2     1  UNL1        0.3594
     12 N         143.1027  144.5611  161.7025 N.2     1  UNL1       -0.0344
     13 C         143.8686  143.5280  162.4746 C.2     1  UNL1        0.2320
     14 C         142.9267  142.8844  163.4485 C.2     1  UNL1        0.0409
     15 C         141.5786  143.5198  163.2784 C.3     1  UNL1        0.1630
     16 C         143.3178  142.3150  168.0875 C.3     1  UNL1        0.0241
     17 C         142.3210  142.2576  169.2069 C.3     1  UNL1        0.1038
     18 C         142.7463  142.5857  170.6074 C.3     1  UNL1        0.1618
     19 O         141.7494  142.5284  171.7268 O.3     1  UNL1       -0.3502
     20 C         140.3274  142.1430  171.4457 C.3     1  UNL1        0.1636
     21 C         139.9020  141.8149  170.0452 C.3     1  UNL1        0.1242
     22 N         140.8989  141.8722  168.9257 N.pl3   1  UNL1       -0.2897
     23 C         138.9800  138.4875  165.4817 C.3     1  UNL1        0.1119
     24 C         138.1668  137.2315  165.5865 C.3     1  UNL1        0.0204
     25 C         137.9909  138.3255  166.5976 C.3     1  UNL1        0.0204
     26 S         139.7837  138.1758  164.2541 S.3     1  UNL1        0.0687
     27 C         140.5873  137.8641  163.0266 C.3     1  UNL1        0.1170
     28 N         138.6017  138.5137  163.3945 N.2     1  UNL1       -0.2504
     29 O         140.9656  137.8379  165.1136 O.2     1  UNL1       -0.2461
     30 H         137.7571  138.8018  163.8102 H       1  UNL1        0.1971
@<TRIPOS>BOND
     1    17    16    1
     2    17    18    1
     3    18    19    1
     4    19    20    1
     5    20    21    1
     6    21    22    1
     7    22     1    1
     8     1     2   ar
     9     2     3   ar
    10     3    23    1
    11    23    26    1
    12    26    27    1
    13    26    28    2
    14    26    29    2
    15    23    24    1
    16    24    25    1
    17     3     4   ar
    18     4     5   ar
    19     5     7    1
    20     7     8    2
    21     8     9    1
    22     9    10    2
    23    10    11    1
    24    11    12    2
    25    12    13    1
    26    13    14    2
    27    14    15    1
    28     5     6   ar
    29    22    17    1
    30     6     1   ar
    31    25    23    1
    32    15     7    1
    33    15    11    1
    34    28    30    1
@<TRIPOS>MOLECULE
*****
 30 34 0 0 0
SMALL
GASTEIGER

@<TRIPOS>ATOM
      1 C         140.9280  140.2923  164.3037 C.ar    1  UNL1        0.1346
      2 C         142.1592  140.8346  163.6405 C.ar    1  UNL1        0.0500
      3 C         143.3163  141.3008  164.4737 C.ar    1  UNL1        0.0752
      4 N         143.2420  141.2246  165.9698 N.ar    1  UNL1       -0.2302
      5 C         142.0106  140.6823  166.6330 C.ar    1  UNL1        0.1603
      6 N         140.8536  140.2161  165.8000 N.ar    1  UNL1       -0.2122
      7 C         141.9364  140.6061  168.1292 C.2     1  UNL1        0.0332
      8 C         142.4725  139.4028  168.8465 C.2     1  UNL1        0.0501
      9 C         142.3983  139.3266  170.3426 C.2     1  UNL1        0.2355
     10 N         141.7879  140.4538  171.1217 N.2     1  UNL1       -0.0341
     11 C         141.2518  141.6572  170.4045 C.2     1  UNL1        0.3594
     12 N         140.5993  142.9134  170.9008 N.2     1  UNL1       -0.0344
     13 C         140.2703  143.7659  169.7112 C.2     1  UNL1        0.2320
     14 C         140.7194  143.0366  168.4798 C.2     1  UNL1        0.0409
     15 C         141.3260  141.7333  168.9082 C.3     1  UNL1        0.1630
     16 C         140.6558  137.3871  163.6066 C.3     1  UNL1        0.0241
     17 C         139.6349  138.3735  163.1221 C.3     1  UNL1        0.1038
     18 C         138.4778  137.9073  162.2890 C.3     1  UNL1        0.1618
     19 O         137.4569  138.8937  161.8046 O.3     1  UNL1       -0.3502
     20 C         137.5929  140.3463  162.1531 C.3     1  UNL1        0.1636
     21 C         138.7500  140.8125  162.9862 C.3     1  UNL1        0.1242
     22 N         139.7710  139.8261  163.4707 N.pl3   1  UNL1       -0.2897
     23 C         144.5475  141.8431  163.8105 C.3     1  UNL1        0.1119
     24 C         145.9454  141.9074  163.2700 C.3     1  UNL1        0.0204
     25 C         145.4546  140.6548  163.9337 C.3     1  UNL1        0.0204
     26 S         144.0680  143.2198  163.4570 S.3     1  UNL1        0.0687
     27 C         143.5885  144.5963  163.1034 C.3     1  UNL1        0.1170
     28 N         144.3156  143.6681  164.8668 N.2     1  UNL1       -0.2504
     29 O         143.8204  142.7715  162.0471 O.2     1  UNL1       -0.2461
     30 H         144.6694  143.0327  165.5304 H       1  UNL1        0.1971
@<TRIPOS>BOND
     1    17    16    1
     2    17    18    1
     3    18    19    1
     4    19    20    1
     5    20    21    1
     6    21    22    1
     7    22     1    1
     8     1     2   ar
     9     2     3   ar
    10     3    23    1
    11    23    26    1
    12    26    27    1
    13    26    28    2
    14    26    29    2
    15    23    24    1
    16    24    25    1
    17     3     4   ar
    18     4     5   ar
    19     5     7    1
    20     7     8    2
    21     8     9    1
    22     9    10    2
    23    10    11    1
    24    11    12    2
    25    12    13    1
    26    13    14    2
    27    14    15    1
    28     5     6   ar
    29    22    17    1
    30     6     1   ar
    31    25    23    1
    32    15     7    1
    33    15    11    1
    34    28    30    1
@<TRIPOS>MOLECULE
*****
 30 34 0 0 0
SMALL
GASTEIGER

@<TRIPOS>ATOM
      1 C         140.9905  142.6387  164.4189 C.ar    1  UNL1        0.1346
      2 C         141.7739  141.5874  163.6901 C.ar    1  UNL1        0.0500
      3 C         142.6452  140.6360  164.4555 C.ar    1  UNL1        0.0752
      4 N         142.7330  140.7358  165.9495 N.ar    1  UNL1       -0.2302
      5 C         141.9495  141.7871  166.6783 C.ar    1  UNL1        0.1603
      6 N         141.0783  142.7385  165.9131 N.ar    1  UNL1       -0.2122
      7 C         142.0374  141.8869  168.1724 C.2     1  UNL1        0.0332
      8 C         143.2198  142.5530  168.8114 C.2     1  UNL1        0.0501
      9 C         143.3076  142.6528  170.3054 C.2     1  UNL1        0.2355
     10 N         142.2131  142.0865  171.1606 N.2     1  UNL1       -0.0341
     11 C         141.0307  141.4204  170.5217 C.2     1  UNL1        0.3594
     12 N         139.8076  140.7745  171.1022 N.2     1  UNL1       -0.0344
     13 C         138.9639  140.2756  169.9668 C.2     1  UNL1        0.2320
     14 C         139.6655  140.6131  168.6846 C.2     1  UNL1        0.0409
     15 C         140.9429  141.3206  169.0276 C.3     1  UNL1        0.1630
     16 C         138.0153  142.2548  164.3889 C.3     1  UNL1        0.0241
     17 C         138.6316  143.3982  163.6386 C.3     1  UNL1        0.1038
     18 C         137.7603  144.3496  162.8733 C.3     1  UNL1        0.1618
     19 O         138.3767  145.4929  162.1231 O.3     1  UNL1       -0.3502
     20 C         139.8642  145.6849  162.1380 C.3     1  UNL1        0.1636
     21 C         140.7356  144.7335  162.9033 C.3     1  UNL1        0.1242
     22 N         140.1192  143.5901  163.6536 N.pl3   1  UNL1       -0.2897
     23 C         143.4286  139.5848  163.7267 C.3     1  UNL1        0.1119
     24 C         144.5983  138.8545  163.1363 C.3     1  UNL1        0.0204
     25 C         144.8129  140.1439  163.8722 C.3     1  UNL1        0.0204
     26 S         142.3164  138.6606  163.3281 S.3     1  UNL1        0.0687
     27 C         141.2042  137.7365  162.9295 C.3     1  UNL1        0.1170
     28 N         142.2325  138.1538  164.7374 N.2     1  UNL1       -0.2504
     29 O         142.4003  139.1675  161.9188 O.2     1  UNL1       -0.2461
     30 H         142.8372  138.5128  165.4264 H       1  UNL1        0.1971
@<TRIPOS>BOND
     1    17    16    1
     2    17    18    1
     3    18    19    1
     4    19    20    1
     5    20    21    1
     6    21    22    1
     7    22     1    1
     8     1     2   ar
     9     2     3   ar
    10     3    23    1
    11    23    26    1
    12    26    27    1
    13    26    28    2
    14    26    29    2
    15    23    24    1
    16    24    25    1
    17     3     4   ar
    18     4     5   ar
    19     5     7    1
    20     7     8    2
    21     8     9    1
    22     9    10    2
    23    10    11    1
    24    11    12    2
    25    12    13    1
    26    13    14    2
    27    14    15    1
    28     5     6   ar
    29    22    17    1
    30     6     1   ar
    31    25    23    1
    32    15     7    1
    33    15    11    1
    34    28    30    1
@<TRIPOS>MOLECULE
*****
 30 34 0 0 0
SMALL
GASTEIGER

@<TRIPOS>ATOM
      1 C         140.7483  140.8444  163.9218 C.ar    1  UNL1        0.1346
      2 C         141.3779  142.1126  163.4263 C.ar    1  UNL1        0.0500
      3 C         142.1174  143.0047  164.3788 C.ar    1  UNL1        0.0752
      4 N         142.2274  142.6287  165.8267 N.ar    1  UNL1       -0.2302
      5 C         141.5978  141.3605  166.3222 C.ar    1  UNL1        0.1603
      6 N         140.8583  140.4684  165.3697 N.ar    1  UNL1       -0.2122
      7 C         141.7077  140.9845  167.7702 C.2     1  UNL1        0.0332
      8 C         142.3576  139.6906  168.1618 C.2     1  UNL1        0.0501
      9 C         142.4675  139.3146  169.6096 C.2     1  UNL1        0.2355
     10 N         141.9276  140.2326  170.6661 N.2     1  UNL1       -0.0341
     11 C         141.2778  141.5265  170.2744 C.2     1  UNL1        0.3594
     12 N         140.6584  142.6248  171.0869 N.2     1  UNL1       -0.0344
     13 C         140.1657  143.6796  170.1411 C.2     1  UNL1        0.2320
     14 C         140.4805  143.2332  168.7440 C.2     1  UNL1        0.0409
     15 C         141.1678  141.9025  168.8265 C.3     1  UNL1        0.1630
     16 C         137.7693  141.0768  163.6548 C.3     1  UNL1        0.0241
     17 C         138.5193  140.0685  162.8358 C.3     1  UNL1        0.1038
     18 C         137.7798  139.1763  161.8833 C.3     1  UNL1        0.1618
     19 O         138.5298  138.1680  161.0644 O.3     1  UNL1       -0.3502
     20 C         140.0193  138.0518  161.1978 C.3     1  UNL1        0.1636
     21 C         140.7589  138.9439  162.1503 C.3     1  UNL1        0.1242
     22 N         140.0088  139.9523  162.9693 N.pl3   1  UNL1       -0.2897
     23 C         142.7470  144.2728  163.8834 C.3     1  UNL1        0.1119
     24 C         143.7714  145.3470  163.6669 C.3     1  UNL1        0.0204
     25 C         144.1024  144.1548  164.5149 C.3     1  UNL1        0.0204
     26 S         141.6102  144.8312  163.0797 S.3     1  UNL1        0.0687
     27 C         140.4734  145.3896  162.2761 C.3     1  UNL1        0.1170
     28 N         140.8054  144.9985  164.3344 N.2     1  UNL1       -0.2504
     29 O         142.4150  144.6639  161.8250 O.2     1  UNL1       -0.2461
     30 H         141.1874  144.7361  165.2030 H       1  UNL1        0.1971
@<TRIPOS>BOND
     1    17    16    1
     2    17    18    1
     3    18    19    1
     4    19    20    1
     5    20    21    1
     6    21    22    1
     7    22     1    1
     8     1     2   ar
     9     2     3   ar
    10     3    23    1
    11    23    26    1
    12    26    27    1
    13    26    28    2
    14    26    29    2
    15    23    24    1
    16    24    25    1
    17     3     4   ar
    18     4     5   ar
    19     5     7    1
    20     7     8    2
    21     8     9    1
    22     9    10    2
    23    10    11    1
    24    11    12    2
    25    12    13    1
    26    13    14    2
    27    14    15    1
    28     5     6   ar
    29    22    17    1
    30     6     1   ar
    31    25    23    1
    32    15     7    1
    33    15    11    1
    34    28    30    1
@<TRIPOS>MOLECULE
*****
 30 34 0 0 0
SMALL
GASTEIGER

@<TRIPOS>ATOM
      1 C         140.8281  141.1676  167.4852 C.ar    1  UNL1        0.1346
      2 C         140.2075  139.8974  166.9839 C.ar    1  UNL1        0.0500
      3 C         140.2135  139.5880  165.5161 C.ar    1  UNL1        0.0752
      4 N         140.8401  140.5488  164.5497 N.ar    1  UNL1       -0.2302
      5 C         141.4608  141.8191  165.0510 C.ar    1  UNL1        0.1603
      6 N         141.4548  142.1285  166.5187 N.ar    1  UNL1       -0.2122
      7 C         142.0875  142.7799  164.0845 C.2     1  UNL1        0.0332
      8 C         143.5613  142.7162  163.8127 C.2     1  UNL1        0.0501
      9 C         144.1879  143.6770  162.8463 C.2     1  UNL1        0.2355
     10 N         143.3408  144.7016  162.1515 N.2     1  UNL1       -0.0341
     11 C         141.8670  144.7654  162.4233 C.2     1  UNL1        0.3594
     12 N         140.7863  145.6599  161.8924 N.2     1  UNL1       -0.0344
     13 C         139.4917  145.2519  162.5308 C.2     1  UNL1        0.2320
     14 C         139.7723  144.1052  163.4562 C.2     1  UNL1        0.0409
     15 C         141.2404  143.8045  163.3898 C.3     1  UNL1        0.1630
     16 C         142.5270  139.5601  169.3639 C.3     1  UNL1        0.0241
     17 C         141.6716  140.6732  169.8923 C.3     1  UNL1        0.1038
     18 C         141.6656  140.9826  171.3600 C.3     1  UNL1        0.1618
     19 O         140.8102  142.0958  171.8883 O.3     1  UNL1       -0.3502
     20 C         139.9608  142.8996  170.9491 C.3     1  UNL1        0.1636
     21 C         139.9667  142.5902  169.4813 C.3     1  UNL1        0.1242
     22 N         140.8222  141.4770  168.9529 N.pl3   1  UNL1       -0.2897
     23 C         139.5928  138.3178  165.0149 C.3     1  UNL1        0.1119
     24 C         138.6366  137.1684  164.8934 C.3     1  UNL1        0.0204
     25 C         138.4114  138.2246  165.9345 C.3     1  UNL1        0.0204
     26 S         140.5586  137.9698  163.9212 S.3     1  UNL1        0.0687
     27 C         141.5245  137.6219  162.8277 C.3     1  UNL1        0.1170
     28 N         139.5985  138.5080  162.9021 N.2     1  UNL1       -0.2504
     29 O         141.5188  137.4317  164.9404 O.2     1  UNL1       -0.2461
     30 H         138.7345  138.8823  163.1893 H       1  UNL1        0.1971
@<TRIPOS>BOND
     1    17    16    1
     2    17    18    1
     3    18    19    1
     4    19    20    1
     5    20    21    1
     6    21    22    1
     7    22     1    1
     8     1     2   ar
     9     2     3   ar
    10     3    23    1
    11    23    26    1
    12    26    27    1
    13    26    28    2
    14    26    29    2
    15    23    24    1
    16    24    25    1
    17     3     4   ar
    18     4     5   ar
    19     5     7    1
    20     7     8    2
    21     8     9    1
    22     9    10    2
    23    10    11    1
    24    11    12    2
    25    12    13    1
    26    13    14    2
    27    14    15    1
    28     5     6   ar
    29    22    17    1
    30     6     1   ar
    31    25    23    1
    32    15     7    1
    33    15    11    1
    34    28    30    1
@<TRIPOS>MOLECULE
*****
 30 34 0 0 0
SMALL
GASTEIGER

@<TRIPOS>ATOM
      1 C         141.4623  141.4145  167.0700 C.ar    1  UNL1        0.1346
      2 C         142.7585  141.8938  166.4866 C.ar    1  UNL1        0.0500
      3 C         143.0721  141.6351  165.0427 C.ar    1  UNL1        0.0752
      4 N         142.0897  140.8973  164.1823 N.ar    1  UNL1       -0.2302
      5 C         140.7935  140.4180  164.7658 C.ar    1  UNL1        0.1603
      6 N         140.4798  140.6766  166.2096 N.ar    1  UNL1       -0.2122
      7 C         139.8110  139.6802  163.9053 C.2     1  UNL1        0.0332
      8 C         139.6136  138.2046  164.0886 C.2     1  UNL1        0.0501
      9 C         138.6313  137.4667  163.2282 C.2     1  UNL1        0.2355
     10 N         137.8461  138.2045  162.1844 N.2     1  UNL1       -0.0341
     11 C         138.0435  139.6801  162.0012 C.2     1  UNL1        0.3594
     12 N         137.4172  140.6674  161.0615 N.2     1  UNL1       -0.0344
     13 C         138.0126  142.0154  161.3412 C.2     1  UNL1        0.2320
     14 C         139.0068  141.8613  162.4537 C.2     1  UNL1        0.0409
     15 C         139.0260  140.4179  162.8616 C.3     1  UNL1        0.1630
     16 C         142.3173  139.4464  169.1666 C.3     1  UNL1        0.0241
     17 C         141.5761  140.6891  169.5622 C.3     1  UNL1        0.1038
     18 C         141.2625  140.9477  171.0060 C.3     1  UNL1        0.1618
     19 O         140.5213  142.1904  171.4016 O.3     1  UNL1       -0.3502
     20 C         140.0938  143.1744  170.3534 C.3     1  UNL1        0.1636
     21 C         140.4075  142.9159  168.9095 C.3     1  UNL1        0.1242
     22 N         141.1487  141.6731  168.5139 N.pl3   1  UNL1       -0.2897
     23 C         144.3682  142.1143  164.4593 C.3     1  UNL1        0.1119
     24 C         145.7605  142.0823  163.9019 C.3     1  UNL1        0.0204
     25 C         145.0950  140.8084  164.3316 C.3     1  UNL1        0.0204
     26 S         144.0915  143.5867  164.3844 S.3     1  UNL1        0.0687
     27 C         143.8148  145.0590  164.3095 C.3     1  UNL1        0.1170
     28 N         143.2393  143.3647  163.1701 N.2     1  UNL1       -0.2504
     29 O         144.9437  143.8087  165.5987 O.2     1  UNL1       -0.2461
     30 H         143.1169  142.4550  162.8142 H       1  UNL1        0.1971
@<TRIPOS>BOND
     1    17    16    1
     2    17    18    1
     3    18    19    1
     4    19    20    1
     5    20    21    1
     6    21    22    1
     7    22     1    1
     8     1     2   ar
     9     2     3   ar
    10     3    23    1
    11    23    26    1
    12    26    27    1
    13    26    28    2
    14    26    29    2
    15    23    24    1
    16    24    25    1
    17     3     4   ar
    18     4     5   ar
    19     5     7    1
    20     7     8    2
    21     8     9    1
    22     9    10    2
    23    10    11    1
    24    11    12    2
    25    12    13    1
    26    13    14    2
    27    14    15    1
    28     5     6   ar
    29    22    17    1
    30     6     1   ar
    31    25    23    1
    32    15     7    1
    33    15    11    1
    34    28    30    1
@<TRIPOS>MOLECULE
*****
 30 34 0 0 0
SMALL
GASTEIGER

@<TRIPOS>ATOM
      1 C         141.6822  140.8996  163.7550 C.ar    1  UNL1        0.1346
      2 C         140.6165  141.8429  163.2815 C.ar    1  UNL1        0.0500
      3 C         139.9484  142.7689  164.2543 C.ar    1  UNL1        0.0752
      4 N         140.3461  142.7516  165.7004 N.ar    1  UNL1       -0.2302
      5 C         141.4119  141.8082  166.1740 C.ar    1  UNL1        0.1603
      6 N         142.0800  140.8822  165.2013 N.ar    1  UNL1       -0.2122
      7 C         141.8096  141.7908  167.6202 C.2     1  UNL1        0.0332
      8 C         143.1471  142.3271  168.0367 C.2     1  UNL1        0.0501
      9 C         143.5448  142.3098  169.4829 C.2     1  UNL1        0.2355
     10 N         142.6050  141.7562  170.5126 N.2     1  UNL1       -0.0341
     11 C         141.2675  141.2199  170.0961 C.2     1  UNL1        0.3594
     12 N         140.1400  140.6161  170.8797 N.2     1  UNL1       -0.0344
     13 C         139.0454  140.2602  169.9178 C.2     1  UNL1        0.2320
     14 C         139.4965  140.6441  168.5397 C.2     1  UNL1        0.0409
     15 C         140.8698  141.2372  168.6499 C.3     1  UNL1        0.1630
     16 C         140.6327  138.1154  163.3716 C.3     1  UNL1        0.0241
     17 C         141.8255  138.5815  162.5906 C.3     1  UNL1        0.1038
     18 C         142.4936  137.6554  161.6179 C.3     1  UNL1        0.1618
     19 O         143.6864  138.1215  160.8369 O.3     1  UNL1       -0.3502
     20 C         144.2112  139.5135  161.0285 C.3     1  UNL1        0.1636
     21 C         143.5432  140.4396  162.0013 C.3     1  UNL1        0.1242
     22 N         142.3503  139.9735  162.7823 N.pl3   1  UNL1       -0.2897
     23 C         138.8826  143.7123  163.7808 C.3     1  UNL1        0.1119
     24 C         137.5334  144.3467  163.6164 C.3     1  UNL1        0.0204
     25 C         137.6962  143.1503  164.5065 C.3     1  UNL1        0.0204
     26 S         139.6990  144.6018  162.8907 S.3     1  UNL1        0.0687
     27 C         140.5152  145.4913  162.0005 C.3     1  UNL1        0.1170
     28 N         140.4012  145.1603  164.0927 N.2     1  UNL1       -0.2504
     29 O         138.9967  144.0434  161.6886 O.2     1  UNL1       -0.2461
     30 H         140.1677  144.8379  164.9932 H       1  UNL1        0.1971
@<TRIPOS>BOND
     1    17    16    1
     2    17    18    1
     3    18    19    1
     4    19    20    1
     5    20    21    1
     6    21    22    1
     7    22     1    1
     8     1     2   ar
     9     2     3   ar
    10     3    23    1
    11    23    26    1
    12    26    27    1
    13    26    28    2
    14    26    29    2
    15    23    24    1
    16    24    25    1
    17     3     4   ar
    18     4     5   ar
    19     5     7    1
    20     7     8    2
    21     8     9    1
    22     9    10    2
    23    10    11    1
    24    11    12    2
    25    12    13    1
    26    13    14    2
    27    14    15    1
    28     5     6   ar
    29    22    17    1
    30     6     1   ar
    31    25    23    1
    32    15     7    1
    33    15    11    1
    34    28    30    1
@<TRIPOS>MOLECULE
*****
 30 34 0 0 0
SMALL
GASTEIGER

@<TRIPOS>ATOM
      1 C         140.4911  141.0187  164.3297 C.ar    1  UNL1        0.1346
      2 C         141.4717  141.8966  163.6102 C.ar    1  UNL1        0.0500
      3 C         142.3094  142.8738  164.3806 C.ar    1  UNL1        0.0752
      4 N         142.1664  142.9730  165.8704 N.ar    1  UNL1       -0.2302
      5 C         141.1858  142.0951  166.5900 C.ar    1  UNL1        0.1603
      6 N         140.3481  141.1179  165.8196 N.ar    1  UNL1       -0.2122
      7 C         141.0428  142.1943  168.0798 C.2     1  UNL1        0.0332
      8 C         140.3538  143.3788  168.6899 C.2     1  UNL1        0.0501
      9 C         140.2109  143.4781  170.1797 C.2     1  UNL1        0.2355
     10 N         140.7570  142.3929  171.0596 N.2     1  UNL1       -0.0341
     11 C         141.4460  141.2084  170.4495 C.2     1  UNL1        0.3594
     12 N         142.0800  139.9927  171.0581 N.2     1  UNL1       -0.0344
     13 C         142.6147  139.1422  169.9443 C.2     1  UNL1        0.2320
     14 C         142.3112  139.8321  168.6474 C.2     1  UNL1        0.0409
     15 C         141.5889  141.1091  168.9596 C.3     1  UNL1        0.1630
     16 C         140.9973  138.0736  164.5943 C.3     1  UNL1        0.0241
     17 C         139.9065  138.5690  163.6916 C.3     1  UNL1        0.1038
     18 C         139.0689  137.5918  162.9213 C.3     1  UNL1        0.1618
     19 O         137.9781  138.0872  162.0186 O.3     1  UNL1       -0.3502
     20 C         137.7250  139.5597  161.8862 C.3     1  UNL1        0.1636
     21 C         138.5626  140.5370  162.6566 C.3     1  UNL1        0.1242
     22 N         139.6534  140.0416  163.5593 N.pl3   1  UNL1       -0.2897
     23 C         143.2900  143.7517  163.6611 C.3     1  UNL1        0.1119
     24 C         143.9177  144.9855  163.0835 C.3     1  UNL1        0.0204
     25 C         142.6143  145.0815  163.8199 C.3     1  UNL1        0.0204
     26 S         144.3061  142.7267  163.2525 S.3     1  UNL1        0.0687
     27 C         145.3222  141.7018  162.8439 C.3     1  UNL1        0.1170
     28 N         144.7826  142.6333  164.6718 N.2     1  UNL1       -0.2504
     29 O         143.8296  142.8202  161.8332 O.2     1  UNL1       -0.2461
     30 H         144.3613  143.1852  165.3698 H       1  UNL1        0.1971
@<TRIPOS>BOND
     1    17    16    1
     2    17    18    1
     3    18    19    1
     4    19    20    1
     5    20    21    1
     6    21    22    1
     7    22     1    1
     8     1     2   ar
     9     2     3   ar
    10     3    23    1
    11    23    26    1
    12    26    27    1
    13    26    28    2
    14    26    29    2
    15    23    24    1
    16    24    25    1
    17     3     4   ar
    18     4     5   ar
    19     5     7    1
    20     7     8    2
    21     8     9    1
    22     9    10    2
    23    10    11    1
    24    11    12    2
    25    12    13    1
    26    13    14    2
    27    14    15    1
    28     5     6   ar
    29    22    17    1
    30     6     1   ar
    31    25    23    1
    32    15     7    1
    33    15    11    1
    34    28    30    1
@<TRIPOS>MOLECULE
*****
 30 34 0 0 0
SMALL
GASTEIGER

@<TRIPOS>ATOM
      1 C         140.4944  141.1056  164.2325 C.ar    1  UNL1        0.1346
      2 C         141.2709  142.1774  163.5268 C.ar    1  UNL1        0.0500
      3 C         141.9433  143.2604  164.3174 C.ar    1  UNL1        0.0752
      4 N         141.8392  143.2715  165.8137 N.ar    1  UNL1       -0.2302
      5 C         141.0626  142.1996  166.5195 C.ar    1  UNL1        0.1603
      6 N         140.3902  141.1166  165.7289 N.ar    1  UNL1       -0.2122
      7 C         140.9586  142.2107  168.0158 C.2     1  UNL1        0.0332
      8 C         140.2709  143.3479  168.7114 C.2     1  UNL1        0.0501
      9 C         140.1668  143.3591  170.2076 C.2     1  UNL1        0.2355
     10 N         140.7504  142.2329  171.0085 N.2     1  UNL1       -0.0341
     11 C         141.4381  141.0957  170.3130 C.2     1  UNL1        0.3594
     12 N         142.1039  139.8564  170.8332 N.2     1  UNL1       -0.0344
     13 C         142.6196  139.0793  169.6584 C.2     1  UNL1        0.2320
     14 C         142.2724  139.8384  168.4121 C.2     1  UNL1        0.0409
     15 C         141.5422  141.0846  168.8166 C.3     1  UNL1        0.1630
     16 C         137.6613  141.4595  163.3113 C.3     1  UNL1        0.0241
     17 C         138.4054  140.1995  162.9814 C.3     1  UNL1        0.1038
     18 C         137.7330  139.1166  162.1908 C.3     1  UNL1        0.1618
     19 O         138.4771  137.8567  161.8608 O.3     1  UNL1       -0.3502
     20 C         139.8935  137.6796  162.3214 C.3     1  UNL1        0.1636
     21 C         140.5661  138.7626  163.1120 C.3     1  UNL1        0.1242
     22 N         139.8219  140.0226  163.4420 N.pl3   1  UNL1       -0.2897
     23 C         142.7198  144.3322  163.6116 C.3     1  UNL1        0.1119
     24 C         143.8725  145.2011  163.2035 C.3     1  UNL1        0.0204
     25 C         144.0727  144.1197  164.2238 C.3     1  UNL1        0.0204
     26 S         141.6366  144.9170  162.7544 S.3     1  UNL1        0.0687
     27 C         140.5535  145.5016  161.8972 C.3     1  UNL1        0.1170
     28 N         140.8759  145.3124  163.9853 N.2     1  UNL1       -0.2504
     29 O         142.3973  144.5216  161.5235 O.2     1  UNL1       -0.2461
     30 H         141.2420  145.1098  164.8765 H       1  UNL1        0.1971
@<TRIPOS>BOND
     1    17    16    1
     2    17    18    1
     3    18    19    1
     4    19    20    1
     5    20    21    1
     6    21    22    1
     7    22     1    1
     8     1     2   ar
     9     2     3   ar
    10     3    23    1
    11    23    26    1
    12    26    27    1
    13    26    28    2
    14    26    29    2
    15    23    24    1
    16    24    25    1
    17     3     4   ar
    18     4     5   ar
    19     5     7    1
    20     7     8    2
    21     8     9    1
    22     9    10    2
    23    10    11    1
    24    11    12    2
    25    12    13    1
    26    13    14    2
    27    14    15    1
    28     5     6   ar
    29    22    17    1
    30     6     1   ar
    31    25    23    1
    32    15     7    1
    33    15    11    1
    34    28    30    1
