@<TRIPOS>MOLECULE
*****
 31 34 0 0 0
SMALL
GASTEIGER

@<TRIPOS>ATOM
      1 C         141.5344  140.5493  167.7253 C.3     1  UNL1        0.2959
      2 N         140.3589  140.2827  168.6181 N.2     1  UNL1       -0.2191
      3 C         140.8794  139.9826  169.9926 C.2     1  UNL1        0.1399
      4 C         140.0485  139.6584  171.1986 C.3     1  UNL1        0.0598
      5 C         142.3765  140.0638  169.9492 C.2     1  UNL1        0.3289
      6 N         143.3057  139.8350  171.1043 N.pl3   1  UNL1       -0.2454
      7 N         142.7814  140.4140  168.5480 N.2     1  UNL1       -0.0404
      8 H         142.9424  139.6083  171.9908 H       1  UNL1        0.2885
      9 H         144.2788  139.9114  170.9759 H       1  UNL1        0.2885
     10 C         144.4043  141.4743  164.3850 C.ar    1  UNL1        0.1307
     11 C         144.0749  142.5252  165.4034 C.ar    1  UNL1        0.0117
     12 C         144.7022  143.8844  165.3084 C.3     1  UNL1        0.0342
     13 C         143.1183  142.2168  166.5168 C.ar    1  UNL1        0.0008
     14 C         142.4910  140.8576  166.6119 C.ar    1  UNL1        0.0475
     15 C         142.8204  139.8068  165.5934 C.ar    1  UNL1        0.0008
     16 C         143.7770  140.1151  164.4800 C.ar    1  UNL1        0.0117
     17 C         144.1063  139.0642  163.4615 C.3     1  UNL1        0.0342
     18 C         144.8476  142.3223  161.9695 C.3     1  UNL1        0.2524
     19 O         145.3609  141.7827  163.2715 O.3     1  UNL1       -0.4721
     20 C         140.4874  140.7490  166.6699 C.ar    1  UNL1        0.0479
     21 C         139.4096  139.7234  166.4790 C.ar    1  UNL1        0.0021
     22 C         138.3627  139.9231  165.4236 C.ar    1  UNL1       -0.0001
     23 C         138.3935  141.1485  164.5590 C.ar    1  UNL1        0.0001
     24 C         139.4712  142.1741  164.7498 C.ar    1  UNL1        0.0029
     25 C         140.5182  141.9744  165.8053 C.ar    1  UNL1        0.0022
     26 C         139.5020  143.3994  163.8852 C.ar    1  UNL1        0.0384
     27 C         140.7814  144.1631  163.7120 C.ar    1  UNL1        0.1022
     28 N         140.8122  145.3885  162.8474 N.ar    1  UNL1       -0.2224
     29 C         139.5636  145.8502  162.1560 C.ar    1  UNL1        0.1989
     30 N         138.2843  145.0865  162.3292 N.ar    1  UNL1       -0.2224
     31 C         138.2535  143.8611  163.1939 C.ar    1  UNL1        0.1022
@<TRIPOS>BOND
     1    18    19    1
     2    19    10    1
     3    10    11   ar
     4    11    12    1
     5    11    13   ar
     6    13    14   ar
     7    14     1    1
     8     1    20    1
     9    20    21   ar
    10    21    22   ar
    11    22    23   ar
    12    23    24   ar
    13    24    26    1
    14    26    27   ar
    15    27    28   ar
    16    28    29   ar
    17    29    30   ar
    18    30    31   ar
    19    24    25   ar
    20     1     2    1
    21     2     3    2
    22     3     4    1
    23     3     5    1
    24     5     6    1
    25     5     7    2
    26    14    15   ar
    27    15    16   ar
    28    16    17    1
    29    16    10   ar
    30     7     1    1
    31    25    20   ar
    32    31    26   ar
    33     6     8    1
    34     6     9    1
@<TRIPOS>MOLECULE
*****
 31 34 0 0 0
SMALL
GASTEIGER

@<TRIPOS>ATOM
      1 C         141.5837  141.3521  167.7479 C.3     1  UNL1        0.2959
      2 N         141.6628  140.2599  168.7729 N.2     1  UNL1       -0.2191
      3 C         142.7534  140.6110  169.7411 C.2     1  UNL1        0.1399
      4 C         143.1751  139.7960  170.9277 C.3     1  UNL1        0.0598
      5 C         143.3483  141.9202  169.3144 C.2     1  UNL1        0.3289
      6 N         144.4693  142.6443  169.9993 N.pl3   1  UNL1       -0.2454
      7 N         142.6253  142.3783  168.0825 N.2     1  UNL1       -0.0404
      8 H         144.8821  142.2611  170.8067 H       1  UNL1        0.2885
      9 H         144.7922  143.5027  169.6414 H       1  UNL1        0.2885
     10 C         140.6522  144.1055  164.3126 C.ar    1  UNL1        0.1307
     11 C         139.6895  143.9808  165.4561 C.ar    1  UNL1        0.0117
     12 C         138.4163  144.7739  165.4546 C.3     1  UNL1        0.0342
     13 C         140.0000  143.0630  166.6012 C.ar    1  UNL1        0.0008
     14 C         141.2732  142.2699  166.6028 C.ar    1  UNL1        0.0475
     15 C         142.2358  142.3946  165.4592 C.ar    1  UNL1        0.0008
     16 C         141.9253  143.3125  164.3142 C.ar    1  UNL1        0.0117
     17 C         142.8881  143.4372  163.1706 C.3     1  UNL1        0.0342
     18 C         139.5889  144.5086  161.9766 C.3     1  UNL1        0.2524
     19 O         140.3417  145.0234  163.1675 O.3     1  UNL1       -0.4721
     20 C         140.4771  140.5178  167.1738 C.ar    1  UNL1        0.0479
     21 C         139.3452  140.0683  168.0494 C.ar    1  UNL1        0.0021
     22 C         138.2386  139.2341  167.4754 C.ar    1  UNL1       -0.0001
     23 C         138.2640  138.8493  166.0258 C.ar    1  UNL1        0.0001
     24 C         139.3959  139.2988  165.1502 C.ar    1  UNL1        0.0029
     25 C         140.5024  140.1331  165.7242 C.ar    1  UNL1        0.0022
     26 C         139.4212  138.9141  163.7006 C.ar    1  UNL1        0.0384
     27 C         140.5625  138.1052  163.1592 C.ar    1  UNL1        0.1022
     28 N         140.5878  137.7204  161.7096 N.ar    1  UNL1       -0.2224
     29 C         139.4719  138.1447  160.8014 C.ar    1  UNL1        0.1989
     30 N         138.3306  138.9537  161.3428 N.ar    1  UNL1       -0.2224
     31 C         138.3053  139.3384  162.7925 C.ar    1  UNL1        0.1022
@<TRIPOS>BOND
     1    18    19    1
     2    19    10    1
     3    10    11   ar
     4    11    12    1
     5    11    13   ar
     6    13    14   ar
     7    14     1    1
     8     1    20    1
     9    20    21   ar
    10    21    22   ar
    11    22    23   ar
    12    23    24   ar
    13    24    26    1
    14    26    27   ar
    15    27    28   ar
    16    28    29   ar
    17    29    30   ar
    18    30    31   ar
    19    24    25   ar
    20     1     2    1
    21     2     3    2
    22     3     4    1
    23     3     5    1
    24     5     6    1
    25     5     7    2
    26    14    15   ar
    27    15    16   ar
    28    16    17    1
    29    16    10   ar
    30     7     1    1
    31    25    20   ar
    32    31    26   ar
    33     6     8    1
    34     6     9    1
@<TRIPOS>MOLECULE
*****
 31 34 0 0 0
SMALL
GASTEIGER

@<TRIPOS>ATOM
      1 C         141.2731  139.9571  167.2729 C.3     1  UNL1        0.2959
      2 N         140.3337  140.4381  168.3388 N.2     1  UNL1       -0.2191
      3 C         140.9587  140.1502  169.6717 C.2     1  UNL1        0.1399
      4 C         140.3627  140.4659  171.0116 C.3     1  UNL1        0.0598
      5 C         142.2843  139.4913  169.4295 C.2     1  UNL1        0.3289
      6 N         143.2466  139.0324  170.4847 N.pl3   1  UNL1       -0.2454
      7 N         142.4786  139.3719  167.9470 N.2     1  UNL1       -0.0404
      8 H         143.0284  139.1552  171.4368 H       1  UNL1        0.2885
      9 H         144.0963  138.6084  170.2251 H       1  UNL1        0.2885
     10 C         143.4293  138.8318  163.4868 C.ar    1  UNL1        0.1307
     11 C         142.1007  138.2128  163.8056 C.ar    1  UNL1        0.0117
     12 C         141.4909  137.2185  162.8623 C.3     1  UNL1        0.0342
     13 C         141.3820  138.5878  165.0676 C.ar    1  UNL1        0.0008
     14 C         141.9918  139.5820  166.0109 C.ar    1  UNL1        0.0475
     15 C         143.3203  140.2011  165.6921 C.ar    1  UNL1        0.0008
     16 C         144.0391  139.8260  164.4300 C.ar    1  UNL1        0.0117
     17 C         145.3677  140.4451  164.1113 C.3     1  UNL1        0.0342
     18 C         143.9366  139.2583  160.9747 C.3     1  UNL1        0.2524
     19 O         144.1480  138.4567  162.2248 O.3     1  UNL1       -0.4721
     20 C         140.2178  140.4638  166.3349 C.ar    1  UNL1        0.0479
     21 C         138.9260  139.7163  166.1850 C.ar    1  UNL1        0.0021
     22 C         137.8708  140.2230  165.2471 C.ar    1  UNL1       -0.0001
     23 C         138.1074  141.4772  164.4591 C.ar    1  UNL1        0.0001
     24 C         139.3991  142.2247  164.6090 C.ar    1  UNL1        0.0029
     25 C         140.4544  141.7180  165.5469 C.ar    1  UNL1        0.0022
     26 C         139.6356  143.4789  163.8210 C.ar    1  UNL1        0.0384
     27 C         138.5057  144.1153  163.0671 C.ar    1  UNL1        0.1022
     28 N         138.7423  145.3695  162.2791 N.ar    1  UNL1       -0.2224
     29 C         140.1088  145.9873  162.2449 C.ar    1  UNL1        0.1989
     30 N         141.2387  145.3509  162.9987 N.ar    1  UNL1       -0.2224
     31 C         141.0021  144.0966  163.7868 C.ar    1  UNL1        0.1022
@<TRIPOS>BOND
     1    18    19    1
     2    19    10    1
     3    10    11   ar
     4    11    12    1
     5    11    13   ar
     6    13    14   ar
     7    14     1    1
     8     1    20    1
     9    20    21   ar
    10    21    22   ar
    11    22    23   ar
    12    23    24   ar
    13    24    26    1
    14    26    27   ar
    15    27    28   ar
    16    28    29   ar
    17    29    30   ar
    18    30    31   ar
    19    24    25   ar
    20     1     2    1
    21     2     3    2
    22     3     4    1
    23     3     5    1
    24     5     6    1
    25     5     7    2
    26    14    15   ar
    27    15    16   ar
    28    16    17    1
    29    16    10   ar
    30     7     1    1
    31    25    20   ar
    32    31    26   ar
    33     6     8    1
    34     6     9    1
@<TRIPOS>MOLECULE
*****
 31 34 0 0 0
SMALL
GASTEIGER

@<TRIPOS>ATOM
      1 C         140.3251  141.0859  167.4082 C.3     1  UNL1        0.2959
      2 N         140.8197  142.0238  168.4691 N.2     1  UNL1       -0.2191
      3 C         140.1194  141.6839  169.7514 C.2     1  UNL1        0.1399
      4 C         140.3126  142.3713  171.0706 C.3     1  UNL1        0.0598
      5 C         139.1919  140.5360  169.4828 C.2     1  UNL1        0.3289
      6 N         138.2949  139.8739  170.4862 N.pl3   1  UNL1       -0.2454
      7 N         139.3191  140.1664  168.0346 N.2     1  UNL1       -0.0404
      8 H         138.2816  140.1898  171.4186 H       1  UNL1        0.2885
      9 H         137.7193  139.1236  170.2125 H       1  UNL1        0.2885
     10 C         139.4332  138.7468  163.6688 C.ar    1  UNL1        0.1307
     11 C         138.6597  139.9949  163.9751 C.ar    1  UNL1        0.0117
     12 C         137.5888  140.4634  163.0349 C.3     1  UNL1        0.0342
     13 C         138.9570  140.7746  165.2216 C.ar    1  UNL1        0.0008
     14 C         140.0278  140.3062  166.1617 C.ar    1  UNL1        0.0475
     15 C         140.8013  139.0581  165.8554 C.ar    1  UNL1        0.0008
     16 C         140.5040  138.2784  164.6089 C.ar    1  UNL1        0.0117
     17 C         141.2776  137.0303  164.3026 C.3     1  UNL1        0.0342
     18 C         139.8646  138.2813  161.1494 C.3     1  UNL1        0.2524
     19 O         139.1359  137.9671  162.4223 O.3     1  UNL1       -0.4721
     20 C         141.2690  141.8424  166.5211 C.ar    1  UNL1        0.0479
     21 C         142.7419  141.8235  166.8040 C.ar    1  UNL1        0.0021
     22 C         143.6858  142.5800  165.9170 C.ar    1  UNL1       -0.0001
     23 C         143.1567  143.3554  164.7471 C.ar    1  UNL1        0.0001
     24 C         141.6838  143.3744  164.4641 C.ar    1  UNL1        0.0029
     25 C         140.7399  142.6179  165.3512 C.ar    1  UNL1        0.0022
     26 C         141.1547  144.1498  163.2942 C.ar    1  UNL1        0.0384
     27 C         142.0178  144.3680  162.0869 C.ar    1  UNL1        0.1022
     28 N         141.4887  145.1434  160.9170 N.ar    1  UNL1       -0.2224
     29 C         140.0965  145.7007  160.9543 C.ar    1  UNL1        0.1989
     30 N         139.2334  145.4825  162.1615 N.ar    1  UNL1       -0.2224
     31 C         139.7626  144.7070  163.3315 C.ar    1  UNL1        0.1022
@<TRIPOS>BOND
     1    18    19    1
     2    19    10    1
     3    10    11   ar
     4    11    12    1
     5    11    13   ar
     6    13    14   ar
     7    14     1    1
     8     1    20    1
     9    20    21   ar
    10    21    22   ar
    11    22    23   ar
    12    23    24   ar
    13    24    26    1
    14    26    27   ar
    15    27    28   ar
    16    28    29   ar
    17    29    30   ar
    18    30    31   ar
    19    24    25   ar
    20     1     2    1
    21     2     3    2
    22     3     4    1
    23     3     5    1
    24     5     6    1
    25     5     7    2
    26    14    15   ar
    27    15    16   ar
    28    16    17    1
    29    16    10   ar
    30     7     1    1
    31    25    20   ar
    32    31    26   ar
    33     6     8    1
    34     6     9    1
@<TRIPOS>MOLECULE
*****
 31 34 0 0 0
SMALL
GASTEIGER

@<TRIPOS>ATOM
      1 C         140.3580  141.1007  167.3645 C.3     1  UNL1        0.2959
      2 N         140.8596  142.0358  168.4247 N.2     1  UNL1       -0.2191
      3 C         140.1664  141.6934  169.7102 C.2     1  UNL1        0.1399
      4 C         140.3678  142.3776  171.0298 C.3     1  UNL1        0.0598
      5 C         139.2365  140.5469  169.4444 C.2     1  UNL1        0.3289
      6 N         138.3448  139.8832  170.4515 N.pl3   1  UNL1       -0.2454
      7 N         139.3550  140.1805  167.9947 N.2     1  UNL1       -0.0404
      8 H         138.3372  140.1969  171.3847 H       1  UNL1        0.2885
      9 H         137.7671  139.1339  170.1794 H       1  UNL1        0.2885
     10 C         139.4426  138.7708  163.6250 C.ar    1  UNL1        0.1307
     11 C         140.5221  138.3024  164.5551 C.ar    1  UNL1        0.0117
     12 C         141.2966  137.0573  164.2388 C.3     1  UNL1        0.0342
     13 C         140.8273  139.0790  165.8016 C.ar    1  UNL1        0.0008
     14 C         140.0529  140.3241  166.1180 C.ar    1  UNL1        0.0475
     15 C         138.9734  140.7925  165.1879 C.ar    1  UNL1        0.0008
     16 C         138.6683  140.0159  163.9414 C.ar    1  UNL1        0.0117
     17 C         137.5887  140.4844  163.0112 C.3     1  UNL1        0.0342
     18 C         139.8596  138.3102  161.1023 C.3     1  UNL1        0.2524
     19 O         139.1375  137.9942  162.3785 O.3     1  UNL1       -0.4721
     20 C         141.2973  141.8585  166.4737 C.ar    1  UNL1        0.0479
     21 C         142.7712  141.8438  166.7523 C.ar    1  UNL1        0.0021
     22 C         143.7104  142.6016  165.8615 C.ar    1  UNL1       -0.0001
     23 C         143.1758  143.3741  164.6922 C.ar    1  UNL1        0.0001
     24 C         141.7021  143.3889  164.4136 C.ar    1  UNL1        0.0029
     25 C         140.7628  142.6311  165.3044 C.ar    1  UNL1        0.0022
     26 C         141.1675  144.1615  163.2443 C.ar    1  UNL1        0.0384
     27 C         139.7827  144.7358  163.2946 C.ar    1  UNL1        0.1022
     28 N         139.2482  145.5083  162.1253 N.ar    1  UNL1       -0.2224
     29 C         140.0984  145.7067  160.9055 C.ar    1  UNL1        0.1989
     30 N         141.4833  145.1324  160.8551 N.ar    1  UNL1       -0.2224
     31 C         142.0178  144.3598  162.0246 C.ar    1  UNL1        0.1022
@<TRIPOS>BOND
     1    18    19    1
     2    19    10    1
     3    10    11   ar
     4    11    12    1
     5    11    13   ar
     6    13    14   ar
     7    14     1    1
     8     1    20    1
     9    20    21   ar
    10    21    22   ar
    11    22    23   ar
    12    23    24   ar
    13    24    26    1
    14    26    27   ar
    15    27    28   ar
    16    28    29   ar
    17    29    30   ar
    18    30    31   ar
    19    24    25   ar
    20     1     2    1
    21     2     3    2
    22     3     4    1
    23     3     5    1
    24     5     6    1
    25     5     7    2
    26    14    15   ar
    27    15    16   ar
    28    16    17    1
    29    16    10   ar
    30     7     1    1
    31    25    20   ar
    32    31    26   ar
    33     6     8    1
    34     6     9    1
@<TRIPOS>MOLECULE
*****
 31 34 0 0 0
SMALL
GASTEIGER

@<TRIPOS>ATOM
      1 C         141.8625  141.4252  167.4255 C.3     1  UNL1        0.2959
      2 N         142.0005  140.2290  168.3200 N.2     1  UNL1       -0.2191
      3 C         142.7598  140.6501  169.5433 C.2     1  UNL1        0.1399
      4 C         143.1239  139.7693  170.7016 C.3     1  UNL1        0.0598
      5 C         143.0910  142.1064  169.4047 C.2     1  UNL1        0.3289
      6 N         143.8445  142.9378  170.4002 N.pl3   1  UNL1       -0.2454
      7 N         142.5365  142.5855  168.0959 N.2     1  UNL1       -0.0404
      8 H         144.1702  142.5307  171.2354 H       1  UNL1        0.2885
      9 H         144.0134  143.8905  170.2185 H       1  UNL1        0.2885
     10 C         140.9876  144.4167  164.1797 C.ar    1  UNL1        0.1307
     11 C         139.9038  144.0033  165.1307 C.ar    1  UNL1        0.0117
     12 C         138.5282  144.5871  164.9998 C.3     1  UNL1        0.0342
     13 C         140.1954  143.0061  166.2126 C.ar    1  UNL1        0.0008
     14 C         141.5709  142.4223  166.3436 C.ar    1  UNL1        0.0475
     15 C         142.6547  142.8357  165.3926 C.ar    1  UNL1        0.0008
     16 C         142.3631  143.8329  164.3107 C.ar    1  UNL1        0.0117
     17 C         143.4470  144.2462  163.3597 C.3     1  UNL1        0.0342
     18 C         140.2222  144.9454  161.7539 C.3     1  UNL1        0.2524
     19 O         140.6960  145.4139  163.0978 O.3     1  UNL1       -0.4721
     20 C         141.1275  140.4733  166.5290 C.ar    1  UNL1        0.0479
     21 C         139.7532  140.0016  166.9015 C.ar    1  UNL1        0.0021
     22 C         139.0183  139.0498  166.0050 C.ar    1  UNL1       -0.0001
     23 C         139.6577  138.5696  164.7359 C.ar    1  UNL1        0.0001
     24 C         141.0319  139.0412  164.3633 C.ar    1  UNL1        0.0029
     25 C         141.7669  139.9931  165.2599 C.ar    1  UNL1        0.0022
     26 C         141.6712  138.5611  163.0942 C.ar    1  UNL1        0.0384
     27 C         140.8166  138.1696  161.9253 C.ar    1  UNL1        0.1022
     28 N         141.4559  137.6894  160.6562 N.ar    1  UNL1       -0.2224
     29 C         142.9500  137.6007  160.5560 C.ar    1  UNL1        0.1989
     30 N         143.8047  137.9921  161.7249 N.ar    1  UNL1       -0.2224
     31 C         143.1653  138.4723  162.9940 C.ar    1  UNL1        0.1022
@<TRIPOS>BOND
     1    18    19    1
     2    19    10    1
     3    10    11   ar
     4    11    12    1
     5    11    13   ar
     6    13    14   ar
     7    14     1    1
     8     1    20    1
     9    20    21   ar
    10    21    22   ar
    11    22    23   ar
    12    23    24   ar
    13    24    26    1
    14    26    27   ar
    15    27    28   ar
    16    28    29   ar
    17    29    30   ar
    18    30    31   ar
    19    24    25   ar
    20     1     2    1
    21     2     3    2
    22     3     4    1
    23     3     5    1
    24     5     6    1
    25     5     7    2
    26    14    15   ar
    27    15    16   ar
    28    16    17    1
    29    16    10   ar
    30     7     1    1
    31    25    20   ar
    32    31    26   ar
    33     6     8    1
    34     6     9    1
@<TRIPOS>MOLECULE
*****
 31 34 0 0 0
SMALL
GASTEIGER

@<TRIPOS>ATOM
      1 C         141.5958  140.8783  167.6462 C.3     1  UNL1        0.2959
      2 N         140.3880  140.7630  168.5281 N.2     1  UNL1       -0.2191
      3 C         140.8028  140.0742  169.7945 C.2     1  UNL1        0.1399
      4 C         139.9102  139.7523  170.9562 C.3     1  UNL1        0.0598
      5 C         142.2670  139.7639  169.6952 C.2     1  UNL1        0.3289
      6 N         143.0956  139.0773  170.7401 N.pl3   1  UNL1       -0.2454
      7 N         142.7571  140.2609  168.3675 N.2     1  UNL1       -0.0404
      8 H         142.6810  138.7863  171.5843 H       1  UNL1        0.2885
      9 H         144.0541  138.9175  170.5817 H       1  UNL1        0.2885
     10 C         144.6233  141.6452  164.4064 C.ar    1  UNL1        0.1307
     11 C         144.1312  142.7787  165.2566 C.ar    1  UNL1        0.0117
     12 C         144.6483  144.1679  165.0269 C.3     1  UNL1        0.0342
     13 C         143.1221  142.5231  166.3366 C.ar    1  UNL1        0.0008
     14 C         142.6050  141.1339  166.5663 C.ar    1  UNL1        0.0475
     15 C         143.0970  140.0004  165.7160 C.ar    1  UNL1        0.0008
     16 C         144.1062  140.2560  164.6361 C.ar    1  UNL1        0.0117
     17 C         144.5982  139.1224  163.7858 C.3     1  UNL1        0.0342
     18 C         145.1760  142.2118  161.9319 C.3     1  UNL1        0.2524
     19 O         145.6324  141.9008  163.3264 O.3     1  UNL1       -0.4721
     20 C         140.6455  141.5492  166.6992 C.ar    1  UNL1        0.0479
     21 C         140.2611  142.9832  166.9128 C.ar    1  UNL1        0.0021
     22 C         139.3108  143.6540  165.9659 C.ar    1  UNL1       -0.0001
     23 C         138.7449  142.8908  164.8052 C.ar    1  UNL1        0.0001
     24 C         139.1293  141.4568  164.5914 C.ar    1  UNL1        0.0029
     25 C         140.0796  140.7860  165.5385 C.ar    1  UNL1        0.0022
     26 C         138.5634  140.6936  163.4307 C.ar    1  UNL1        0.0384
     27 C         137.9406  141.4293  162.2814 C.ar    1  UNL1        0.1022
     28 N         137.3747  140.6661  161.1207 N.ar    1  UNL1       -0.2224
     29 C         137.4316  139.1672  161.1093 C.ar    1  UNL1        0.1989
     30 N         138.0543  138.4315  162.2586 N.ar    1  UNL1       -0.2224
     31 C         138.6202  139.1948  163.4194 C.ar    1  UNL1        0.1022
@<TRIPOS>BOND
     1    18    19    1
     2    19    10    1
     3    10    11   ar
     4    11    12    1
     5    11    13   ar
     6    13    14   ar
     7    14     1    1
     8     1    20    1
     9    20    21   ar
    10    21    22   ar
    11    22    23   ar
    12    23    24   ar
    13    24    26    1
    14    26    27   ar
    15    27    28   ar
    16    28    29   ar
    17    29    30   ar
    18    30    31   ar
    19    24    25   ar
    20     1     2    1
    21     2     3    2
    22     3     4    1
    23     3     5    1
    24     5     6    1
    25     5     7    2
    26    14    15   ar
    27    15    16   ar
    28    16    17    1
    29    16    10   ar
    30     7     1    1
    31    25    20   ar
    32    31    26   ar
    33     6     8    1
    34     6     9    1
@<TRIPOS>MOLECULE
*****
 31 34 0 0 0
SMALL
GASTEIGER

@<TRIPOS>ATOM
      1 C         141.6850  140.9924  167.7191 C.3     1  UNL1        0.2959
      2 N         140.4851  140.8500  168.6080 N.2     1  UNL1       -0.2191
      3 C         140.9463  140.2977  169.9242 C.2     1  UNL1        0.1399
      4 C         140.0755  139.9972  171.1080 C.3     1  UNL1        0.0598
      5 C         142.4312  140.0989  169.8487 C.2     1  UNL1        0.3289
      6 N         143.3059  139.5645  170.9439 N.pl3   1  UNL1       -0.2454
      7 N         142.8877  140.5282  168.4859 N.2     1  UNL1       -0.0404
      8 H         142.9109  139.3082  171.8085 H       1  UNL1        0.2885
      9 H         144.2749  139.4701  170.7980 H       1  UNL1        0.2885
     10 C         144.6602  141.7435  164.4276 C.ar    1  UNL1        0.1307
     11 C         144.2031  140.3453  164.7207 C.ar    1  UNL1        0.0117
     12 C         144.7378  139.1974  163.9167 C.3     1  UNL1        0.0342
     13 C         143.2114  140.0949  165.8179 C.ar    1  UNL1        0.0008
     14 C         142.6767  141.2428  166.6219 C.ar    1  UNL1        0.0475
     15 C         143.1338  142.6410  166.3288 C.ar    1  UNL1        0.0008
     16 C         144.1255  142.8914  165.2317 C.ar    1  UNL1        0.0117
     17 C         144.5826  144.2897  164.9386 C.3     1  UNL1        0.0342
     18 C         145.1747  142.2392  161.9297 C.3     1  UNL1        0.2524
     19 O         145.6519  141.9939  163.3304 O.3     1  UNL1       -0.4721
     20 C         140.6896  141.5089  166.7229 C.ar    1  UNL1        0.0479
     21 C         140.2176  142.9305  166.8022 C.ar    1  UNL1        0.0021
     22 C         139.2223  143.4470  165.8061 C.ar    1  UNL1       -0.0001
     23 C         138.6989  142.5420  164.7305 C.ar    1  UNL1        0.0001
     24 C         139.1708  141.1204  164.6511 C.ar    1  UNL1        0.0029
     25 C         140.1662  140.6039  165.6473 C.ar    1  UNL1        0.0022
     26 C         138.6474  140.2154  163.5755 C.ar    1  UNL1        0.0384
     27 C         137.9090  140.7917  162.4039 C.ar    1  UNL1        0.1022
     28 N         137.3856  139.8867  161.3283 N.ar    1  UNL1       -0.2224
     29 C         137.6006  138.4052  161.4242 C.ar    1  UNL1        0.1989
     30 N         138.3390  137.8289  162.5958 N.ar    1  UNL1       -0.2224
     31 C         138.8624  138.7340  163.6715 C.ar    1  UNL1        0.1022
@<TRIPOS>BOND
     1    18    19    1
     2    19    10    1
     3    10    11   ar
     4    11    12    1
     5    11    13   ar
     6    13    14   ar
     7    14     1    1
     8     1    20    1
     9    20    21   ar
    10    21    22   ar
    11    22    23   ar
    12    23    24   ar
    13    24    26    1
    14    26    27   ar
    15    27    28   ar
    16    28    29   ar
    17    29    30   ar
    18    30    31   ar
    19    24    25   ar
    20     1     2    1
    21     2     3    2
    22     3     4    1
    23     3     5    1
    24     5     6    1
    25     5     7    2
    26    14    15   ar
    27    15    16   ar
    28    16    17    1
    29    16    10   ar
    30     7     1    1
    31    25    20   ar
    32    31    26   ar
    33     6     8    1
    34     6     9    1
@<TRIPOS>MOLECULE
*****
 31 34 0 0 0
SMALL
GASTEIGER

@<TRIPOS>ATOM
      1 C         139.9757  141.5802  166.9994 C.3     1  UNL1        0.2959
      2 N         140.2913  142.7258  167.9148 N.2     1  UNL1       -0.2191
      3 C         140.1582  142.2402  169.3279 C.2     1  UNL1        0.1399
      4 C         140.3834  143.0568  170.5657 C.3     1  UNL1        0.0598
      5 C         139.7603  140.7945  169.2856 C.2     1  UNL1        0.3289
      6 N         139.5178  139.9118  170.4739 N.pl3   1  UNL1       -0.2454
      7 N         139.6475  140.3866  167.8466 N.2     1  UNL1       -0.0404
      8 H         139.6176  140.2732  171.3842 H       1  UNL1        0.2885
      9 H         139.2588  138.9710  170.3435 H       1  UNL1        0.2885
     10 C         139.2007  138.7693  163.5718 C.ar    1  UNL1        0.1307
     11 C         138.4460  140.0620  163.6670 C.ar    1  UNL1        0.0117
     12 C         137.4329  140.4179  162.6195 C.3     1  UNL1        0.0342
     13 C         138.7043  140.9990  164.8095 C.ar    1  UNL1        0.0008
     14 C         139.7174  140.6432  165.8569 C.ar    1  UNL1        0.0475
     15 C         140.4721  139.3505  165.7618 C.ar    1  UNL1        0.0008
     16 C         140.2138  138.4135  164.6192 C.ar    1  UNL1        0.0117
     17 C         140.9686  137.1207  164.5241 C.3     1  UNL1        0.0342
     18 C         139.6397  138.0391  161.1175 C.3     1  UNL1        0.2524
     19 O         138.9424  137.8323  162.4293 O.3     1  UNL1       -0.4721
     20 C         140.2499  142.5779  165.9134 C.ar    1  UNL1        0.0479
     21 C         139.4176  143.8215  165.8098 C.ar    1  UNL1        0.0021
     22 C         139.6918  144.8191  164.7238 C.ar    1  UNL1       -0.0001
     23 C         140.7982  144.5732  163.7413 C.ar    1  UNL1        0.0001
     24 C         141.6305  143.3296  163.8448 C.ar    1  UNL1        0.0029
     25 C         141.3563  142.3320  164.9309 C.ar    1  UNL1        0.0022
     26 C         142.7369  143.0837  162.8624 C.ar    1  UNL1        0.0384
     27 C         142.6025  143.5605  161.4465 C.ar    1  UNL1        0.1022
     28 N         143.7089  143.3145  160.4640 N.ar    1  UNL1       -0.2224
     29 C         144.9499  142.5918  160.8974 C.ar    1  UNL1        0.1989
     30 N         145.0844  142.1150  162.3133 N.ar    1  UNL1       -0.2224
     31 C         143.9778  142.3610  163.2958 C.ar    1  UNL1        0.1022
@<TRIPOS>BOND
     1    18    19    1
     2    19    10    1
     3    10    11   ar
     4    11    12    1
     5    11    13   ar
     6    13    14   ar
     7    14     1    1
     8     1    20    1
     9    20    21   ar
    10    21    22   ar
    11    22    23   ar
    12    23    24   ar
    13    24    26    1
    14    26    27   ar
    15    27    28   ar
    16    28    29   ar
    17    29    30   ar
    18    30    31   ar
    19    24    25   ar
    20     1     2    1
    21     2     3    2
    22     3     4    1
    23     3     5    1
    24     5     6    1
    25     5     7    2
    26    14    15   ar
    27    15    16   ar
    28    16    17    1
    29    16    10   ar
    30     7     1    1
    31    25    20   ar
    32    31    26   ar
    33     6     8    1
    34     6     9    1
