@<TRIPOS>MOLECULE
*****
 37 40 0 0 0
SMALL
GASTEIGER

@<TRIPOS>ATOM
      1 C         142.3908  140.5367  165.4176 C.ar    1  UNL1        0.1196
      2 C         142.9258  141.8263  164.8693 C.ar    1  UNL1        0.1196
      3 N         143.4296  141.8894  163.4579 N.ar    1  UNL1       -0.2379
      4 C         143.3984  140.6630  162.5948 C.ar    1  UNL1        0.1304
      5 C         143.9023  140.7262  161.1833 C.ar    1  UNL1        0.0718
      6 C         143.8711  139.4997  160.3203 C.ar    1  UNL1        0.0370
      7 C         143.3361  138.2101  160.8687 C.ar    1  UNL1        0.1020
      8 N         142.8322  138.1470  162.2801 N.ar    1  UNL1       -0.2237
      9 C         142.8634  139.3734  163.1432 C.ar    1  UNL1        0.1815
     10 N         142.3596  139.3103  164.5546 N.ar    1  UNL1       -0.2222
     11 C         140.8792  140.3472  169.6520 C.ar    1  UNL1        0.0722
     12 C         142.3271  140.0857  169.3601 C.ar    1  UNL1        0.1033
     13 N         142.8310  140.1489  167.9486 N.ar    1  UNL1       -0.2422
     14 C         141.8869  140.4736  166.8291 C.ar    1  UNL1        0.1044
     15 C         140.4390  140.7351  167.1210 C.ar    1  UNL1        0.0907
     16 C         139.9352  140.6720  168.5324 C.ar    1  UNL1        0.0115
     17 N         139.6472  139.0647  171.5459 N.am    1  UNL1       -0.3253
     18 C         140.3753  140.2841  171.0634 C.2     1  UNL1        0.2443
     19 O         140.5996  141.4403  171.9923 O.2     1  UNL1       -0.2703
     20 H         139.3165  139.0232  172.4723 H       1  UNL1        0.1453
     21 H         139.5000  138.3058  170.9362 H       1  UNL1        0.1453
     22 C         139.4950  141.0599  166.0014 C.3     1  UNL1        0.4200
     23 F         138.5510  141.3846  164.8819 F       1  UNL1       -0.1658
     24 F         139.7830  142.5207  166.1824 F       1  UNL1       -0.1658
     25 F         139.2070  139.5990  165.8205 F       1  UNL1       -0.1658
     26 N         144.4373  142.0157  160.6350 N.pl3   1  UNL1       -0.2966
     27 H         145.3932  142.2317  160.7291 H       1  UNL1        0.1537
     28 C         143.5159  142.9762  159.9432 C.ar    1  UNL1        0.1322
     29 C         143.5378  143.0916  158.4478 C.ar    1  UNL1        0.0344
     30 C         142.6165  144.0520  157.7561 C.ar    1  UNL1        0.0083
     31 C         141.6731  144.8972  158.5597 C.ar    1  UNL1        0.0906
     32 C         141.6511  144.7818  160.0551 C.ar    1  UNL1        0.1041
     33 N         142.5725  143.8213  160.7468 N.ar    1  UNL1       -0.2291
     34 C         140.7517  145.8577  157.8679 C.3     1  UNL1        0.4200
     35 F         139.8303  146.8181  157.1762 F       1  UNL1       -0.1658
     36 F         141.6048  145.7890  156.6361 F       1  UNL1       -0.1658
     37 F         139.8985  145.9264  159.0997 F       1  UNL1       -0.1658
@<TRIPOS>BOND
     1    17    18   am
     2    18    19    2
     3    18    11    1
     4    11    12   ar
     5    12    13   ar
     6    13    14   ar
     7    14     1    1
     8     1     2   ar
     9     2     3   ar
    10     3     4   ar
    11     4     5   ar
    12     5    26    1
    13    26    28    1
    14    28    29   ar
    15    29    30   ar
    16    30    31   ar
    17    31    34    1
    18    34    35    1
    19    34    36    1
    20    34    37    1
    21    31    32   ar
    22    32    33   ar
    23     5     6   ar
    24     6     7   ar
    25     7     8   ar
    26     8     9   ar
    27     9    10   ar
    28    14    15   ar
    29    15    22    1
    30    22    23    1
    31    22    24    1
    32    22    25    1
    33    15    16   ar
    34    16    11   ar
    35    10     1   ar
    36     9     4   ar
    37    33    28   ar
    38    17    20    1
    39    17    21    1
    40    26    27    1
@<TRIPOS>MOLECULE
*****
 37 40 0 0 0
SMALL
GASTEIGER

@<TRIPOS>ATOM
      1 C         142.1653  139.9460  165.1935 C.ar    1  UNL1        0.1196
      2 C         142.2294  138.6236  164.4885 C.ar    1  UNL1        0.1196
      3 N         142.6723  138.5576  163.0569 N.ar    1  UNL1       -0.2379
      4 C         143.0511  139.8140  162.3303 C.ar    1  UNL1        0.1304
      5 C         143.4940  139.7480  160.8987 C.ar    1  UNL1        0.0718
      6 C         143.8728  141.0044  160.1721 C.ar    1  UNL1        0.0370
      7 C         143.8087  142.3269  160.8772 C.ar    1  UNL1        0.1020
      8 N         143.3658  142.3929  162.3088 N.ar    1  UNL1       -0.2237
      9 C         142.9870  141.1364  163.0353 C.ar    1  UNL1        0.1815
     10 N         142.5441  141.2024  164.4669 N.ar    1  UNL1       -0.2222
     11 C         140.8366  140.1441  169.4883 C.ar    1  UNL1        0.0722
     12 C         142.2956  140.0305  169.1592 C.ar    1  UNL1        0.1033
     13 N         142.7385  139.9645  167.7275 N.ar    1  UNL1       -0.2422
     14 C         141.7224  140.0120  166.6251 C.ar    1  UNL1        0.1044
     15 C         140.2634  140.1256  166.9543 C.ar    1  UNL1        0.0907
     16 C         139.8205  140.1917  168.3859 C.ar    1  UNL1        0.0115
     17 N         139.6547  139.0563  171.5303 N.am    1  UNL1       -0.3253
     18 C         140.3937  140.2101  170.9199 C.2     1  UNL1        0.2443
     19 O         140.6897  141.4300  171.7411 O.2     1  UNL1       -0.2703
     20 H         139.3640  139.0996  172.4699 H       1  UNL1        0.1453
     21 H         139.4605  138.2557  170.9913 H       1  UNL1        0.1453
     22 C         139.2473  140.1732  165.8519 C.3     1  UNL1        0.4200
     23 F         138.2312  140.2207  164.7495 F       1  UNL1       -0.1658
     24 F         139.1454  138.6770  165.8813 F       1  UNL1       -0.1658
     25 F         139.3492  141.6694  165.8224 F       1  UNL1       -0.1658
     26 N         143.5581  138.4256  160.1937 N.pl3   1  UNL1       -0.2966
     27 H         144.2434  137.7656  160.4467 H       1  UNL1        0.1537
     28 C         142.5781  138.1087  159.1031 C.ar    1  UNL1        0.1322
     29 C         141.1754  138.6347  159.1792 C.ar    1  UNL1        0.0344
     30 C         140.1955  138.3179  158.0887 C.ar    1  UNL1        0.0083
     31 C         140.6182  137.4750  156.9221 C.ar    1  UNL1        0.0906
     32 C         142.0208  136.9490  156.8461 C.ar    1  UNL1        0.1041
     33 N         143.0008  137.2658  157.9366 N.ar    1  UNL1       -0.2291
     34 C         139.6381  137.1581  155.8316 C.3     1  UNL1        0.4200
     35 F         138.6581  136.8412  154.7411 F       1  UNL1       -0.1658
     36 F         138.8812  138.4142  156.1467 F       1  UNL1       -0.1658
     37 F         140.3950  135.9020  155.5165 F       1  UNL1       -0.1658
@<TRIPOS>BOND
     1    17    18   am
     2    18    19    2
     3    18    11    1
     4    11    12   ar
     5    12    13   ar
     6    13    14   ar
     7    14     1    1
     8     1     2   ar
     9     2     3   ar
    10     3     4   ar
    11     4     5   ar
    12     5    26    1
    13    26    28    1
    14    28    29   ar
    15    29    30   ar
    16    30    31   ar
    17    31    34    1
    18    34    35    1
    19    34    36    1
    20    34    37    1
    21    31    32   ar
    22    32    33   ar
    23     5     6   ar
    24     6     7   ar
    25     7     8   ar
    26     8     9   ar
    27     9    10   ar
    28    14    15   ar
    29    15    22    1
    30    22    23    1
    31    22    24    1
    32    22    25    1
    33    15    16   ar
    34    16    11   ar
    35    10     1   ar
    36     9     4   ar
    37    33    28   ar
    38    17    20    1
    39    17    21    1
    40    26    27    1
@<TRIPOS>MOLECULE
*****
 37 40 0 0 0
SMALL
GASTEIGER

@<TRIPOS>ATOM
      1 C         139.6787  140.4696  164.8827 C.ar    1  UNL1        0.1196
      2 C         138.3791  140.6133  164.1476 C.ar    1  UNL1        0.1196
      3 N         138.2872  140.2205  162.7029 N.ar    1  UNL1       -0.2379
      4 C         139.4949  139.6840  161.9933 C.ar    1  UNL1        0.1304
      5 C         139.4030  139.2912  160.5485 C.ar    1  UNL1        0.0718
      6 C         140.6107  138.7546  159.8389 C.ar    1  UNL1        0.0370
      7 C         141.9103  138.6109  160.5740 C.ar    1  UNL1        0.1020
      8 N         142.0022  139.0037  162.0187 N.ar    1  UNL1       -0.2237
      9 C         140.7945  139.5403  162.7284 C.ar    1  UNL1        0.1815
     10 N         140.8864  139.9331  164.1731 N.ar    1  UNL1       -0.2222
     11 C         139.9546  141.6481  169.2170 C.ar    1  UNL1        0.0722
     12 C         139.4891  140.2724  168.8420 C.ar    1  UNL1        0.1033
     13 N         139.3971  139.8795  167.3972 N.ar    1  UNL1       -0.2422
     14 C         139.7707  140.8624  166.3275 C.ar    1  UNL1        0.1044
     15 C         140.2362  142.2382  166.7025 C.ar    1  UNL1        0.0907
     16 C         140.3281  142.6310  168.1472 C.ar    1  UNL1        0.0115
     17 N         139.4270  143.3239  171.1309 N.am    1  UNL1       -0.3253
     18 C         140.0465  142.0409  170.6616 C.2     1  UNL1        0.2443
     19 O         140.7580  141.1509  171.6371 O.2     1  UNL1       -0.2703
     20 H         139.4873  143.5817  172.0791 H       1  UNL1        0.1453
     21 H         138.9600  143.9080  170.4906 H       1  UNL1        0.1453
     22 C         140.6097  143.2211  165.6327 C.3     1  UNL1        0.4200
     23 F         140.9832  144.2040  164.5629 F       1  UNL1       -0.1658
     24 F         139.1951  143.7184  165.5956 F       1  UNL1       -0.1658
     25 F         142.0244  142.7238  165.6697 F       1  UNL1       -0.1658
     26 N         138.1034  139.4349  159.8135 N.pl3   1  UNL1       -0.2966
     27 H         137.3659  138.8072  159.9902 H       1  UNL1        0.1537
     28 C         137.9275  140.5351  158.8090 C.ar    1  UNL1        0.1322
     29 C         138.6626  141.8313  158.9800 C.ar    1  UNL1        0.0344
     30 C         138.4867  142.9314  157.9756 C.ar    1  UNL1        0.0083
     31 C         137.5757  142.7352  156.8002 C.ar    1  UNL1        0.0906
     32 C         136.8405  141.4389  156.6293 C.ar    1  UNL1        0.1041
     33 N         137.0164  140.3389  157.6337 N.ar    1  UNL1       -0.2291
     34 C         137.3998  143.8353  155.7958 C.3     1  UNL1        0.4200
     35 F         137.2239  144.9354  154.7915 F       1  UNL1       -0.1658
     36 F         136.0584  143.2785  155.4208 F       1  UNL1       -0.1658
     37 F         138.7411  144.3922  156.1709 F       1  UNL1       -0.1658
@<TRIPOS>BOND
     1    17    18   am
     2    18    19    2
     3    18    11    1
     4    11    12   ar
     5    12    13   ar
     6    13    14   ar
     7    14     1    1
     8     1     2   ar
     9     2     3   ar
    10     3     4   ar
    11     4     5   ar
    12     5    26    1
    13    26    28    1
    14    28    29   ar
    15    29    30   ar
    16    30    31   ar
    17    31    34    1
    18    34    35    1
    19    34    36    1
    20    34    37    1
    21    31    32   ar
    22    32    33   ar
    23     5     6   ar
    24     6     7   ar
    25     7     8   ar
    26     8     9   ar
    27     9    10   ar
    28    14    15   ar
    29    15    22    1
    30    22    23    1
    31    22    24    1
    32    22    25    1
    33    15    16   ar
    34    16    11   ar
    35    10     1   ar
    36     9     4   ar
    37    33    28   ar
    38    17    20    1
    39    17    21    1
    40    26    27    1
@<TRIPOS>MOLECULE
*****
 37 40 0 0 0
SMALL
GASTEIGER

@<TRIPOS>ATOM
      1 C         141.0950  142.0849  165.2000 C.ar    1  UNL1        0.1196
      2 C         140.4882  143.3313  164.6270 C.ar    1  UNL1        0.1196
      3 N         140.9995  143.8870  163.3310 N.ar    1  UNL1       -0.2379
      4 C         142.1176  143.1963  162.6079 C.ar    1  UNL1        0.1304
      5 C         142.6289  143.7520  161.3118 C.ar    1  UNL1        0.0718
      6 C         143.7470  143.0613  160.5887 C.ar    1  UNL1        0.0370
      7 C         144.3537  141.8149  161.1617 C.ar    1  UNL1        0.1020
      8 N         143.8424  141.2592  162.4577 N.ar    1  UNL1       -0.2237
      9 C         142.7244  141.9499  163.1808 C.ar    1  UNL1        0.1815
     10 N         142.2131  141.3942  164.4769 N.ar    1  UNL1       -0.2222
     11 C         139.5611  140.4177  169.0882 C.ar    1  UNL1        0.0722
     12 C         140.5632  141.5338  169.0941 C.ar    1  UNL1        0.1033
     13 N         141.0745  142.0896  167.7980 N.ar    1  UNL1       -0.2422
     14 C         140.5837  141.5292  166.4961 C.ar    1  UNL1        0.1044
     15 C         139.5816  140.4130  166.4901 C.ar    1  UNL1        0.0907
     16 C         139.0704  139.8572  167.7861 C.ar    1  UNL1        0.0115
     17 N         140.0092  139.5304  171.4885 N.am    1  UNL1       -0.3253
     18 C         139.0498  139.8619  170.3842 C.2     1  UNL1        0.2443
     19 O         137.5791  139.6377  170.5758 O.2     1  UNL1       -0.2703
     20 H         139.6737  139.1656  172.3391 H       1  UNL1        0.1453
     21 H         140.9745  139.6775  171.3627 H       1  UNL1        0.1453
     22 C         139.0909  139.8526  165.1881 C.3     1  UNL1        0.4200
     23 F         138.6001  139.2922  163.8862 F       1  UNL1       -0.1658
     24 F         138.0051  140.8868  165.1523 F       1  UNL1       -0.1658
     25 F         140.1767  138.8183  165.2240 F       1  UNL1       -0.1658
     26 N         142.0221  144.9984  160.7389 N.pl3   1  UNL1       -0.2966
     27 H         141.9841  145.8206  161.2791 H       1  UNL1        0.1537
     28 C         141.4733  144.9922  159.3428 C.ar    1  UNL1        0.1322
     29 C         140.2846  144.1409  159.0081 C.ar    1  UNL1        0.0344
     30 C         139.7358  144.1346  157.6121 C.ar    1  UNL1        0.0083
     31 C         140.3758  144.9797  156.5509 C.ar    1  UNL1        0.0906
     32 C         141.5646  145.8310  156.8856 C.ar    1  UNL1        0.1041
     33 N         142.1133  145.8373  158.2816 N.ar    1  UNL1       -0.2291
     34 C         139.8270  144.9735  155.1548 C.3     1  UNL1        0.4200
     35 F         139.2782  144.9672  153.7589 F       1  UNL1       -0.1658
     36 F         141.1975  145.2564  154.6148 F       1  UNL1       -0.1658
     37 F         138.4566  144.6905  155.6949 F       1  UNL1       -0.1658
@<TRIPOS>BOND
     1    17    18   am
     2    18    19    2
     3    18    11    1
     4    11    12   ar
     5    12    13   ar
     6    13    14   ar
     7    14     1    1
     8     1     2   ar
     9     2     3   ar
    10     3     4   ar
    11     4     5   ar
    12     5    26    1
    13    26    28    1
    14    28    29   ar
    15    29    30   ar
    16    30    31   ar
    17    31    34    1
    18    34    35    1
    19    34    36    1
    20    34    37    1
    21    31    32   ar
    22    32    33   ar
    23     5     6   ar
    24     6     7   ar
    25     7     8   ar
    26     8     9   ar
    27     9    10   ar
    28    14    15   ar
    29    15    22    1
    30    22    23    1
    31    22    24    1
    32    22    25    1
    33    15    16   ar
    34    16    11   ar
    35    10     1   ar
    36     9     4   ar
    37    33    28   ar
    38    17    20    1
    39    17    21    1
    40    26    27    1
@<TRIPOS>MOLECULE
*****
 37 40 0 0 0
SMALL
GASTEIGER

@<TRIPOS>ATOM
      1 C         140.0172  140.4591  165.2696 C.ar    1  UNL1        0.1196
      2 C         141.2224  139.7702  164.7014 C.ar    1  UNL1        0.1196
      3 N         141.2042  139.2726  163.2864 N.ar    1  UNL1       -0.2379
      4 C         139.9809  139.4639  162.4398 C.ar    1  UNL1        0.1304
      5 C         139.9628  138.9663  161.0248 C.ar    1  UNL1        0.0718
      6 C         138.7395  139.1576  160.1781 C.ar    1  UNL1        0.0370
      7 C         137.5342  139.8465  160.7464 C.ar    1  UNL1        0.1020
      8 N         137.5524  140.3441  162.1613 N.ar    1  UNL1       -0.2237
      9 C         138.7757  140.1528  163.0080 C.ar    1  UNL1        0.1815
     10 N         138.7939  140.6504  164.4229 N.ar    1  UNL1       -0.2222
     11 C         140.0716  141.9520  169.5145 C.ar    1  UNL1        0.0722
     12 C         139.6401  140.5461  169.2194 C.ar    1  UNL1        0.1033
     13 N         139.6220  140.0484  167.8044 N.ar    1  UNL1       -0.2422
     14 C         140.0353  140.9567  166.6846 C.ar    1  UNL1        0.1044
     15 C         140.4668  142.3627  166.9797 C.ar    1  UNL1        0.0907
     16 C         140.4850  142.8604  168.3946 C.ar    1  UNL1        0.0115
     17 N         138.9566  143.2866  171.4446 N.am    1  UNL1       -0.3253
     18 C         140.0897  142.4497  170.9294 C.2     1  UNL1        0.2443
     19 O         141.2410  142.1104  171.8291 O.2     1  UNL1       -0.2703
     20 H         138.9684  143.6132  172.3732 H       1  UNL1        0.1453
     21 H         138.2009  143.5093  170.8541 H       1  UNL1        0.1453
     22 C         140.8802  143.2711  165.8597 C.3     1  UNL1        0.4200
     23 F         141.2936  144.1793  164.7399 F       1  UNL1       -0.1658
     24 F         142.2944  142.7885  165.9905 F       1  UNL1       -0.1658
     25 F         139.4660  143.7536  165.7290 F       1  UNL1       -0.1658
     26 N         141.1680  138.2774  160.4565 N.pl3   1  UNL1       -0.2966
     27 H         141.3069  137.3161  160.6172 H       1  UNL1        0.1537
     28 C         142.1616  139.0532  159.6435 C.ar    1  UNL1        0.1322
     29 C         142.3890  138.7024  158.2029 C.ar    1  UNL1        0.0344
     30 C         143.3825  139.4782  157.3900 C.ar    1  UNL1        0.0083
     31 C         144.1486  140.6048  158.0175 C.ar    1  UNL1        0.0906
     32 C         143.9212  140.9556  159.4580 C.ar    1  UNL1        0.1041
     33 N         142.9277  140.1798  160.2710 N.ar    1  UNL1       -0.2291
     34 C         145.1422  141.3806  157.2044 C.3     1  UNL1        0.4200
     35 F         146.1358  142.1564  156.3915 F       1  UNL1       -0.1658
     36 F         145.2781  140.2205  156.2634 F       1  UNL1       -0.1658
     37 F         145.0064  142.5407  158.1455 F       1  UNL1       -0.1658
@<TRIPOS>BOND
     1    17    18   am
     2    18    19    2
     3    18    11    1
     4    11    12   ar
     5    12    13   ar
     6    13    14   ar
     7    14     1    1
     8     1     2   ar
     9     2     3   ar
    10     3     4   ar
    11     4     5   ar
    12     5    26    1
    13    26    28    1
    14    28    29   ar
    15    29    30   ar
    16    30    31   ar
    17    31    34    1
    18    34    35    1
    19    34    36    1
    20    34    37    1
    21    31    32   ar
    22    32    33   ar
    23     5     6   ar
    24     6     7   ar
    25     7     8   ar
    26     8     9   ar
    27     9    10   ar
    28    14    15   ar
    29    15    22    1
    30    22    23    1
    31    22    24    1
    32    22    25    1
    33    15    16   ar
    34    16    11   ar
    35    10     1   ar
    36     9     4   ar
    37    33    28   ar
    38    17    20    1
    39    17    21    1
    40    26    27    1
@<TRIPOS>MOLECULE
*****
 37 40 0 0 0
SMALL
GASTEIGER

@<TRIPOS>ATOM
      1 C         142.4196  140.1923  160.9193 C.ar    1  UNL1        0.1196
      2 C         142.5528  139.5348  162.2609 C.ar    1  UNL1        0.1196
      3 N         142.9942  140.3372  163.4488 N.ar    1  UNL1       -0.2379
      4 C         143.3025  141.7971  163.2951 C.ar    1  UNL1        0.1304
      5 C         143.7440  142.5996  164.4831 C.ar    1  UNL1        0.0718
      6 C         144.0522  144.0595  164.3294 C.ar    1  UNL1        0.0370
      7 C         143.9190  144.7170  162.9877 C.ar    1  UNL1        0.1020
      8 N         143.4775  143.9146  161.7998 N.ar    1  UNL1       -0.2237
      9 C         143.1693  142.4546  161.9535 C.ar    1  UNL1        0.1815
     10 N         142.7278  141.6522  160.7656 N.ar    1  UNL1       -0.2222
     11 C         141.0951  137.7850  157.3554 C.ar    1  UNL1        0.0722
     12 C         142.5490  137.8492  157.7187 C.ar    1  UNL1        0.1033
     13 N         142.9905  138.6517  158.9067 N.ar    1  UNL1       -0.2422
     14 C         141.9781  139.3898  159.7313 C.ar    1  UNL1        0.1044
     15 C         140.5241  139.3256  159.3680 C.ar    1  UNL1        0.0907
     16 C         140.0826  138.5232  158.1801 C.ar    1  UNL1        0.0115
     17 N         139.1953  136.7093  155.9472 N.am    1  UNL1       -0.3253
     18 C         140.6536  136.9826  156.1675 C.2     1  UNL1        0.2443
     19 O         141.6704  136.4536  155.1998 O.2     1  UNL1       -0.2703
     20 H         138.9055  136.1826  155.1675 H       1  UNL1        0.1453
     21 H         138.5279  137.0565  156.5823 H       1  UNL1        0.1453
     22 C         139.5117  140.0639  160.1927 C.3     1  UNL1        0.4200
     23 F         138.4993  140.8020  161.0174 F       1  UNL1       -0.1658
     24 F         139.3317  138.8513  161.0571 F       1  UNL1       -0.1658
     25 F         139.6917  141.2765  159.3284 F       1  UNL1       -0.1658
     26 N         143.8772  141.9421  165.8247 N.pl3   1  UNL1       -0.2966
     27 H         144.6010  141.2945  165.9858 H       1  UNL1        0.1537
     28 C         142.9076  142.2713  166.9209 C.ar    1  UNL1        0.1322
     29 C         141.4457  142.4067  166.6134 C.ar    1  UNL1        0.0344
     30 C         140.4762  142.7359  167.7096 C.ar    1  UNL1        0.0083
     31 C         140.9685  142.9296  169.1132 C.ar    1  UNL1        0.0906
     32 C         142.4304  142.7942  169.4206 C.ar    1  UNL1        0.1041
     33 N         143.3999  142.4650  168.3245 N.ar    1  UNL1       -0.2291
     34 C         139.9989  143.2588  170.2094 C.3     1  UNL1        0.4200
     35 F         139.0293  143.5879  171.3055 F       1  UNL1       -0.1658
     36 F         140.4630  144.6850  170.1917 F       1  UNL1       -0.1658
     37 F         139.5347  141.8326  170.2270 F       1  UNL1       -0.1658
@<TRIPOS>BOND
     1    17    18   am
     2    18    19    2
     3    18    11    1
     4    11    12   ar
     5    12    13   ar
     6    13    14   ar
     7    14     1    1
     8     1     2   ar
     9     2     3   ar
    10     3     4   ar
    11     4     5   ar
    12     5    26    1
    13    26    28    1
    14    28    29   ar
    15    29    30   ar
    16    30    31   ar
    17    31    34    1
    18    34    35    1
    19    34    36    1
    20    34    37    1
    21    31    32   ar
    22    32    33   ar
    23     5     6   ar
    24     6     7   ar
    25     7     8   ar
    26     8     9   ar
    27     9    10   ar
    28    14    15   ar
    29    15    22    1
    30    22    23    1
    31    22    24    1
    32    22    25    1
    33    15    16   ar
    34    16    11   ar
    35    10     1   ar
    36     9     4   ar
    37    33    28   ar
    38    17    20    1
    39    17    21    1
    40    26    27    1
@<TRIPOS>MOLECULE
*****
 37 40 0 0 0
SMALL
GASTEIGER

@<TRIPOS>ATOM
      1 C         140.3271  141.4759  164.7913 C.ar    1  UNL1        0.1196
      2 C         139.1536  142.0671  164.0678 C.ar    1  UNL1        0.1196
      3 N         139.1886  142.2129  162.5754 N.ar    1  UNL1       -0.2379
      4 C         140.3969  141.7674  161.8064 C.ar    1  UNL1        0.1304
      5 C         140.4318  141.9131  160.3138 C.ar    1  UNL1        0.0718
      6 C         141.6402  141.4677  159.5448 C.ar    1  UNL1        0.0370
      7 C         142.8137  140.8764  160.2683 C.ar    1  UNL1        0.1020
      8 N         142.7787  140.7307  161.7608 N.ar    1  UNL1       -0.2237
      9 C         141.5704  141.1761  162.5298 C.ar    1  UNL1        0.1815
     10 N         141.5355  141.0304  164.0223 N.ar    1  UNL1       -0.2222
     11 C         140.2224  141.0385  169.2688 C.ar    1  UNL1        0.0722
     12 C         140.8093  142.2721  168.6493 C.ar    1  UNL1        0.1033
     13 N         140.8442  142.4179  167.1567 N.ar    1  UNL1       -0.2422
     14 C         140.2922  141.3301  166.2838 C.ar    1  UNL1        0.1044
     15 C         139.7054  140.0965  166.9034 C.ar    1  UNL1        0.0907
     16 C         139.6705  139.9507  168.3958 C.ar    1  UNL1        0.0115
     17 N         139.8596  139.5651  171.3776 N.am    1  UNL1       -0.3253
     18 C         140.1875  140.8927  170.7613 C.2     1  UNL1        0.2443
     19 O         140.4805  142.0745  171.6374 O.2     1  UNL1       -0.2703
     20 H         139.8367  139.4694  172.3572 H       1  UNL1        0.1453
     21 H         139.6674  138.7895  170.8026 H       1  UNL1        0.1453
     22 C         139.1534  139.0087  166.0304 C.3     1  UNL1        0.4200
     23 F         138.6015  137.9209  165.1574 F       1  UNL1       -0.1658
     24 F         140.5381  138.4688  165.8277 F       1  UNL1       -0.1658
     25 F         137.7687  139.5486  166.2331 F       1  UNL1       -0.1658
     26 N         139.2584  142.5044  159.5904 N.pl3   1  UNL1       -0.2966
     27 H         138.3483  142.1813  159.7819 H       1  UNL1        0.1537
     28 C         139.4714  143.5878  158.5751 C.ar    1  UNL1        0.1322
     29 C         139.0083  143.3930  157.1618 C.ar    1  UNL1        0.0344
     30 C         139.2214  144.4764  156.1466 C.ar    1  UNL1        0.0083
     31 C         139.8977  145.7547  156.5447 C.ar    1  UNL1        0.0906
     32 C         140.3609  145.9496  157.9579 C.ar    1  UNL1        0.1041
     33 N         140.1478  144.8662  158.9731 N.ar    1  UNL1       -0.2291
     34 C         140.1108  146.8382  155.5294 C.3     1  UNL1        0.4200
     35 F         140.3239  147.9216  154.5141 F       1  UNL1       -0.1658
     36 F         139.0610  147.6735  156.2004 F       1  UNL1       -0.1658
     37 F         141.1605  146.0029  154.8584 F       1  UNL1       -0.1658
@<TRIPOS>BOND
     1    17    18   am
     2    18    19    2
     3    18    11    1
     4    11    12   ar
     5    12    13   ar
     6    13    14   ar
     7    14     1    1
     8     1     2   ar
     9     2     3   ar
    10     3     4   ar
    11     4     5   ar
    12     5    26    1
    13    26    28    1
    14    28    29   ar
    15    29    30   ar
    16    30    31   ar
    17    31    34    1
    18    34    35    1
    19    34    36    1
    20    34    37    1
    21    31    32   ar
    22    32    33   ar
    23     5     6   ar
    24     6     7   ar
    25     7     8   ar
    26     8     9   ar
    27     9    10   ar
    28    14    15   ar
    29    15    22    1
    30    22    23    1
    31    22    24    1
    32    22    25    1
    33    15    16   ar
    34    16    11   ar
    35    10     1   ar
    36     9     4   ar
    37    33    28   ar
    38    17    20    1
    39    17    21    1
    40    26    27    1
@<TRIPOS>MOLECULE
*****
 37 40 0 0 0
SMALL
GASTEIGER

@<TRIPOS>ATOM
      1 C         140.5017  141.3746  164.4443 C.ar    1  UNL1        0.1196
      2 C         141.8420  141.1041  163.8275 C.ar    1  UNL1        0.1196
      3 N         142.0162  141.1987  162.3407 N.ar    1  UNL1       -0.2379
      4 C         140.8502  141.5640  161.4707 C.ar    1  UNL1        0.1304
      5 C         141.0245  141.6586  159.9838 C.ar    1  UNL1        0.0718
      6 C         139.8585  142.0239  159.1137 C.ar    1  UNL1        0.0370
      7 C         138.5182  142.2944  159.7305 C.ar    1  UNL1        0.1020
      8 N         138.3439  142.1997  161.2173 N.ar    1  UNL1       -0.2237
      9 C         139.5099  141.8345  162.0874 C.ar    1  UNL1        0.1815
     10 N         139.3357  141.7398  163.5742 N.ar    1  UNL1       -0.2222
     11 C         139.9787  141.0905  168.9048 C.ar    1  UNL1        0.0722
     12 C         140.6007  142.3137  168.2990 C.ar    1  UNL1        0.1033
     13 N         140.7751  142.4084  166.8121 N.ar    1  UNL1       -0.2422
     14 C         140.3274  141.2799  165.9311 C.ar    1  UNL1        0.1044
     15 C         139.7054  140.0568  166.5369 C.ar    1  UNL1        0.0907
     16 C         139.5310  139.9621  168.0237 C.ar    1  UNL1        0.0115
     17 N         139.7397  139.6521  171.0550 N.am    1  UNL1       -0.3253
     18 C         139.8044  140.9958  170.3916 C.2     1  UNL1        0.2443
     19 O         139.6948  142.2448  171.2150 O.2     1  UNL1       -0.2703
     20 H         139.6253  139.5899  172.0308 H       1  UNL1        0.1453
     21 H         139.8117  138.8323  170.5146 H       1  UNL1        0.1453
     22 C         139.2577  138.9283  165.6559 C.3     1  UNL1        0.4200
     23 F         138.8101  137.7999  164.7749 F       1  UNL1       -0.1658
     24 F         140.6556  138.3848  165.6417 F       1  UNL1       -0.1658
     25 F         137.8597  139.4718  165.6700 F       1  UNL1       -0.1658
     26 N         142.3648  141.3881  159.3670 N.pl3   1  UNL1       -0.2966
     27 H         143.1023  142.0284  159.4916 H       1  UNL1        0.1537
     28 C         142.5816  140.1420  158.5605 C.ar    1  UNL1        0.1322
     29 C         142.9718  140.2422  157.1157 C.ar    1  UNL1        0.0344
     30 C         143.1885  138.9962  156.3093 C.ar    1  UNL1        0.0083
     31 C         143.0151  137.6499  156.9477 C.ar    1  UNL1        0.0906
     32 C         142.6249  137.5498  158.3926 C.ar    1  UNL1        0.1041
     33 N         142.4081  138.7958  159.1990 N.ar    1  UNL1       -0.2291
     34 C         143.2318  136.4039  156.1412 C.3     1  UNL1        0.4200
     35 F         143.4485  135.1578  155.3348 F       1  UNL1       -0.1658
     36 F         144.5130  136.9724  155.6071 F       1  UNL1       -0.1658
     37 F         141.9506  135.8353  156.6753 F       1  UNL1       -0.1658
@<TRIPOS>BOND
     1    17    18   am
     2    18    19    2
     3    18    11    1
     4    11    12   ar
     5    12    13   ar
     6    13    14   ar
     7    14     1    1
     8     1     2   ar
     9     2     3   ar
    10     3     4   ar
    11     4     5   ar
    12     5    26    1
    13    26    28    1
    14    28    29   ar
    15    29    30   ar
    16    30    31   ar
    17    31    34    1
    18    34    35    1
    19    34    36    1
    20    34    37    1
    21    31    32   ar
    22    32    33   ar
    23     5     6   ar
    24     6     7   ar
    25     7     8   ar
    26     8     9   ar
    27     9    10   ar
    28    14    15   ar
    29    15    22    1
    30    22    23    1
    31    22    24    1
    32    22    25    1
    33    15    16   ar
    34    16    11   ar
    35    10     1   ar
    36     9     4   ar
    37    33    28   ar
    38    17    20    1
    39    17    21    1
    40    26    27    1
@<TRIPOS>MOLECULE
*****
 37 40 0 0 0
SMALL
GASTEIGER

@<TRIPOS>ATOM
      1 C         142.0211  141.5783  165.1205 C.ar    1  UNL1        0.1196
      2 C         143.0047  140.6417  164.4840 C.ar    1  UNL1        0.1196
      3 N         143.3969  140.8283  163.0483 N.ar    1  UNL1       -0.2379
      4 C         142.8055  141.9515  162.2491 C.ar    1  UNL1        0.1304
      5 C         143.1978  142.1381  160.8134 C.ar    1  UNL1        0.0718
      6 C         142.6063  143.2613  160.0142 C.ar    1  UNL1        0.0370
      7 C         141.6226  144.1979  160.6508 C.ar    1  UNL1        0.1020
      8 N         141.2304  144.0113  162.0865 N.ar    1  UNL1       -0.2237
      9 C         141.8218  142.8881  162.8857 C.ar    1  UNL1        0.1815
     10 N         141.4296  142.7015  164.3214 N.ar    1  UNL1       -0.2222
     11 C         140.8443  141.0184  169.4278 C.ar    1  UNL1        0.0722
     12 C         142.0884  141.7823  169.0834 C.ar    1  UNL1        0.1033
     13 N         142.4807  141.9689  167.6477 N.ar    1  UNL1       -0.2422
     14 C         141.6288  141.3917  166.5563 C.ar    1  UNL1        0.1044
     15 C         140.3847  140.6278  166.9007 C.ar    1  UNL1        0.0907
     16 C         139.9924  140.4411  168.3364 C.ar    1  UNL1        0.0115
     17 N         139.8717  139.5257  171.3187 N.am    1  UNL1       -0.3253
     18 C         140.4520  140.8318  170.8635 C.2     1  UNL1        0.2443
     19 O         140.6400  141.9513  171.8440 O.2     1  UNL1       -0.2703
     20 H         139.6142  139.4032  172.2610 H       1  UNL1        0.1453
     21 H         139.7483  138.7909  170.6751 H       1  UNL1        0.1453
     22 C         139.5328  140.0505  165.8093 C.3     1  UNL1        0.4200
     23 F         138.6810  139.4732  164.7179 F       1  UNL1       -0.1658
     24 F         140.3076  138.7682  165.8828 F       1  UNL1       -0.1658
     25 F         138.7580  141.3327  165.7357 F       1  UNL1       -0.1658
     26 N         144.1814  141.2016  160.1768 N.pl3   1  UNL1       -0.2966
     27 H         145.1476  141.3432  160.3016 H       1  UNL1        0.1537
     28 C         143.6929  140.0492  159.3501 C.ar    1  UNL1        0.1322
     29 C         143.0731  138.8572  160.0171 C.ar    1  UNL1        0.0344
     30 C         142.5846  137.7049  159.1903 C.ar    1  UNL1        0.0083
     31 C         142.7160  137.7445  157.6966 C.ar    1  UNL1        0.0906
     32 C         143.3358  138.9365  157.0296 C.ar    1  UNL1        0.1041
     33 N         143.8243  140.0889  157.8564 N.ar    1  UNL1       -0.2291
     34 C         142.2275  136.5921  156.8699 C.3     1  UNL1        0.4200
     35 F         141.7390  135.4398  156.0432 F       1  UNL1       -0.1658
     36 F         143.1133  135.6614  157.6438 F       1  UNL1       -0.1658
     37 F         141.3417  137.5229  156.0960 F       1  UNL1       -0.1658
@<TRIPOS>BOND
     1    17    18   am
     2    18    19    2
     3    18    11    1
     4    11    12   ar
     5    12    13   ar
     6    13    14   ar
     7    14     1    1
     8     1     2   ar
     9     2     3   ar
    10     3     4   ar
    11     4     5   ar
    12     5    26    1
    13    26    28    1
    14    28    29   ar
    15    29    30   ar
    16    30    31   ar
    17    31    34    1
    18    34    35    1
    19    34    36    1
    20    34    37    1
    21    31    32   ar
    22    32    33   ar
    23     5     6   ar
    24     6     7   ar
    25     7     8   ar
    26     8     9   ar
    27     9    10   ar
    28    14    15   ar
    29    15    22    1
    30    22    23    1
    31    22    24    1
    32    22    25    1
    33    15    16   ar
    34    16    11   ar
    35    10     1   ar
    36     9     4   ar
    37    33    28   ar
    38    17    20    1
    39    17    21    1
    40    26    27    1
