@<TRIPOS>MOLECULE
*****
 34 38 0 0 0
SMALL
GASTEIGER

@<TRIPOS>ATOM
      1 C         140.8048  142.6911  165.9533 C.ar    1  UNL1        0.0016
      2 C         139.6468  143.6080  166.2144 C.ar    1  UNL1        0.0016
      3 C         139.1495  144.5159  165.1288 C.ar    1  UNL1        0.0191
      4 C         139.8103  144.5068  163.7822 C.ar    1  UNL1        0.0828
      5 N         139.3129  145.4147  162.6967 N.ar    1  UNL1       -0.2422
      6 C         139.9736  145.4057  161.3501 C.ar    1  UNL1        0.1175
      7 C         141.1317  144.4887  161.0890 C.ar    1  UNL1        0.0989
      8 C         141.6290  143.5809  162.1745 C.ar    1  UNL1        0.0826
      9 C         140.9683  143.5899  163.5211 C.ar    1  UNL1        0.0350
     10 C         141.4656  142.6820  164.6067 C.ar    1  UNL1        0.0030
     11 N         142.7814  142.7919  161.6272 N.ar    1  UNL1       -0.2815
     12 C         142.9963  143.2121  160.2034 C.ar    1  UNL1        0.3316
     13 O         144.0464  142.6775  159.2752 O.2     1  UNL1       -0.2463
     14 N         141.9767  144.2609  159.8708 N.ar    1  UNL1       -0.2765
     15 C         141.8282  144.9592  158.5516 C.3     1  UNL1        0.1352
     16 C         142.2969  139.9674  169.2100 C.ar    1  UNL1        0.2249
     17 C         142.6805  139.7103  167.7828 C.ar    1  UNL1        0.0577
     18 C         142.1832  140.6182  166.6973 C.ar    1  UNL1        0.0063
     19 C         141.3022  141.7831  167.0389 C.ar    1  UNL1        0.0194
     20 C         140.9185  142.0402  168.4660 C.ar    1  UNL1        0.1020
     21 N         141.4158  141.1324  169.5515 N.ar    1  UNL1       -0.2101
     22 O         142.7942  139.0595  170.2955 O.3     1  UNL1       -0.4602
     23 C         143.4236  137.7443  169.9435 C.3     1  UNL1        0.2085
     24 C         143.7602  136.7606  171.0247 C.3     1  UNL1        0.0647
     25 C         144.8407  135.7438  170.8038 C.3     1  UNL1        0.0760
     26 C         145.8059  134.4380  172.8319 C.3     1  UNL1        0.0897
     27 N         145.9134  135.5534  171.8347 N.3     1  UNL1       -0.2702
     28 C         147.0938  136.4784  171.8686 C.3     1  UNL1        0.0897
     29 C         143.5788  141.7632  162.3728 C.3     1  UNL1        0.0949
     30 C         143.1299  140.3321  162.3873 C.3     1  UNL1        0.0548
     31 C         143.9273  139.3033  163.1330 C.3     1  UNL1        0.1441
     32 O         145.1737  139.7058  163.8641 O.3     1  UNL1       -0.3536
     33 C         145.6226  141.1370  163.8496 C.3     1  UNL1        0.1441
     34 C         144.8252  142.1657  163.1040 C.3     1  UNL1        0.0548
@<TRIPOS>BOND
     1    26    27    1
     2    27    28    1
     3    27    25    1
     4    25    24    1
     5    24    23    1
     6    23    22    1
     7    22    16    1
     8    16    17   ar
     9    17    18   ar
    10    18    19   ar
    11    19     1    1
    12     1     2   ar
    13     2     3   ar
    14     3     4   ar
    15     4     5   ar
    16     5     6   ar
    17     6     7   ar
    18     7     8   ar
    19     8     9   ar
    20     9    10   ar
    21     8    11   ar
    22    11    29    1
    23    29    30    1
    24    30    31    1
    25    31    32    1
    26    32    33    1
    27    33    34    1
    28    11    12   ar
    29    12    13    2
    30    12    14   ar
    31    14    15    1
    32    19    20   ar
    33    20    21   ar
    34    21    16   ar
    35    10     1   ar
    36    34    29    1
    37     9     4   ar
    38    14     7   ar
@<TRIPOS>MOLECULE
*****
 34 38 0 0 0
SMALL
GASTEIGER

@<TRIPOS>ATOM
      1 C         140.5367  138.5889  163.4964 C.ar    1  UNL1        0.0016
      2 C         139.2266  137.9308  163.8133 C.ar    1  UNL1        0.0016
      3 C         138.5970  138.1237  165.1610 C.ar    1  UNL1        0.0191
      4 C         139.2775  138.9748  166.1918 C.ar    1  UNL1        0.0828
      5 N         138.6479  139.1677  167.5396 N.ar    1  UNL1       -0.2422
      6 C         139.3284  140.0188  168.5704 C.ar    1  UNL1        0.1175
      7 C         140.6385  140.6770  168.2534 C.ar    1  UNL1        0.0989
      8 C         141.2681  140.4841  166.9057 C.ar    1  UNL1        0.0826
      9 C         140.5876  139.6330  165.8749 C.ar    1  UNL1        0.0350
     10 C         141.2172  139.4400  164.5272 C.ar    1  UNL1        0.0030
     11 N         142.5557  141.2532  166.8812 N.ar    1  UNL1       -0.2815
     12 C         142.7218  141.9215  168.2137 C.ar    1  UNL1        0.3316
     13 O         143.8711  142.7929  168.6259 O.2     1  UNL1       -0.2463
     14 N         141.5369  141.5654  169.0618 N.ar    1  UNL1       -0.2765
     15 C         141.2933  142.0181  170.4710 C.3     1  UNL1        0.1352
     16 C         142.4255  138.0102  159.4531 C.ar    1  UNL1        0.2249
     17 C         143.2291  137.7729  160.6972 C.ar    1  UNL1        0.0577
     18 C         142.5995  137.9658  162.0450 C.ar    1  UNL1        0.0063
     19 C         141.1663  138.3960  162.1486 C.ar    1  UNL1        0.0194
     20 C         140.3627  138.6333  160.9045 C.ar    1  UNL1        0.1020
     21 N         140.9922  138.4404  159.5567 N.ar    1  UNL1       -0.2101
     22 O         143.0550  137.8173  158.1054 O.3     1  UNL1       -0.4602
     23 C         142.4832  136.8150  157.1470 C.3     1  UNL1        0.2085
     24 C         143.3954  135.8941  156.3921 C.3     1  UNL1        0.0647
     25 C         143.6185  134.4934  156.8801 C.3     1  UNL1        0.0760
     26 C         142.9567  131.9810  156.8875 C.3     1  UNL1        0.0897
     27 N         142.7307  133.3825  156.4030 N.3     1  UNL1       -0.2702
     28 C         141.6168  133.6731  155.4413 C.3     1  UNL1        0.0897
     29 C         143.5096  141.3390  165.7267 C.3     1  UNL1        0.0949
     30 C         144.1942  140.1018  165.2261 C.3     1  UNL1        0.0548
     31 C         145.1482  140.1875  164.0716 C.3     1  UNL1        0.1441
     32 O         145.4174  141.5104  163.4178 O.3     1  UNL1       -0.3536
     33 C         144.7327  142.7475  163.9185 C.3     1  UNL1        0.1441
     34 C         143.7788  142.6619  165.0729 C.3     1  UNL1        0.0548
@<TRIPOS>BOND
     1    26    27    1
     2    27    28    1
     3    27    25    1
     4    25    24    1
     5    24    23    1
     6    23    22    1
     7    22    16    1
     8    16    17   ar
     9    17    18   ar
    10    18    19   ar
    11    19     1    1
    12     1     2   ar
    13     2     3   ar
    14     3     4   ar
    15     4     5   ar
    16     5     6   ar
    17     6     7   ar
    18     7     8   ar
    19     8     9   ar
    20     9    10   ar
    21     8    11   ar
    22    11    29    1
    23    29    30    1
    24    30    31    1
    25    31    32    1
    26    32    33    1
    27    33    34    1
    28    11    12   ar
    29    12    13    2
    30    12    14   ar
    31    14    15    1
    32    19    20   ar
    33    20    21   ar
    34    21    16   ar
    35    10     1   ar
    36    34    29    1
    37     9     4   ar
    38    14     7   ar
@<TRIPOS>MOLECULE
*****
 34 38 0 0 0
SMALL
GASTEIGER

@<TRIPOS>ATOM
      1 C         140.5203  143.1200  164.7555 C.ar    1  UNL1        0.0016
      2 C         139.3969  144.0820  165.0054 C.ar    1  UNL1        0.0016
      3 C         138.9757  145.0388  163.9297 C.ar    1  UNL1        0.0191
      4 C         139.6778  145.0335  162.6042 C.ar    1  UNL1        0.0828
      5 N         139.2565  145.9903  161.5285 N.ar    1  UNL1       -0.2422
      6 C         139.9586  145.9850  160.2030 C.ar    1  UNL1        0.1175
      7 C         141.0821  145.0229  159.9532 C.ar    1  UNL1        0.0989
      8 C         141.5033  144.0662  161.0288 C.ar    1  UNL1        0.0826
      9 C         140.8012  144.0714  162.3544 C.ar    1  UNL1        0.0350
     10 C         141.2224  143.1147  163.4300 C.ar    1  UNL1        0.0030
     11 N         142.6359  143.2393  160.4962 N.ar    1  UNL1       -0.2815
     12 C         142.9146  143.6851  159.0914 C.ar    1  UNL1        0.3316
     13 O         143.9686  143.1266  158.1818 O.2     1  UNL1       -0.2463
     14 N         141.9542  144.7875  158.7558 N.ar    1  UNL1       -0.2765
     15 C         141.8793  145.5248  157.4517 C.3     1  UNL1        0.1352
     16 C         141.7840  140.2495  167.9826 C.ar    1  UNL1        0.2249
     17 C         142.7552  141.2669  167.4614 C.ar    1  UNL1        0.0577
     18 C         142.3339  142.2238  166.3857 C.ar    1  UNL1        0.0063
     19 C         140.9415  142.1631  165.8312 C.ar    1  UNL1        0.0194
     20 C         139.9704  141.1457  166.3524 C.ar    1  UNL1        0.1020
     21 N         140.3916  140.1889  167.4281 N.ar    1  UNL1       -0.2101
     22 O         142.2053  139.2927  169.0582 O.3     1  UNL1       -0.4602
     23 C         141.9481  139.6231  170.4986 C.3     1  UNL1        0.2085
     24 C         140.7153  140.3855  170.8847 C.3     1  UNL1        0.0647
     25 C         140.8304  141.7977  171.3772 C.3     1  UNL1        0.0760
     26 C         142.8588  143.2013  170.5615 C.3     1  UNL1        0.0897
     27 N         141.4003  142.8593  170.4839 N.3     1  UNL1       -0.2702
     28 C         140.5119  143.5791  169.5131 C.3     1  UNL1        0.0897
     29 C         143.3622  142.1568  161.2382 C.3     1  UNL1        0.0949
     30 C         144.5251  142.5025  162.1204 C.3     1  UNL1        0.0548
     31 C         145.2515  141.4200  162.8625 C.3     1  UNL1        0.1441
     32 O         144.8149  139.9918  162.7223 O.3     1  UNL1       -0.3536
     33 C         143.6520  139.6461  161.8402 C.3     1  UNL1        0.1441
     34 C         142.9256  140.7285  161.0982 C.3     1  UNL1        0.0548
@<TRIPOS>BOND
     1    26    27    1
     2    27    28    1
     3    27    25    1
     4    25    24    1
     5    24    23    1
     6    23    22    1
     7    22    16    1
     8    16    17   ar
     9    17    18   ar
    10    18    19   ar
    11    19     1    1
    12     1     2   ar
    13     2     3   ar
    14     3     4   ar
    15     4     5   ar
    16     5     6   ar
    17     6     7   ar
    18     7     8   ar
    19     8     9   ar
    20     9    10   ar
    21     8    11   ar
    22    11    29    1
    23    29    30    1
    24    30    31    1
    25    31    32    1
    26    32    33    1
    27    33    34    1
    28    11    12   ar
    29    12    13    2
    30    12    14   ar
    31    14    15    1
    32    19    20   ar
    33    20    21   ar
    34    21    16   ar
    35    10     1   ar
    36    34    29    1
    37     9     4   ar
    38    14     7   ar
@<TRIPOS>MOLECULE
*****
 34 38 0 0 0
SMALL
GASTEIGER

@<TRIPOS>ATOM
      1 C         139.0076  139.4068  163.5925 C.ar    1  UNL1        0.0016
      2 C         138.7791  138.0681  162.9558 C.ar    1  UNL1        0.0016
      3 C         138.7410  137.9451  161.4613 C.ar    1  UNL1        0.0191
      4 C         138.9313  139.1609  160.6037 C.ar    1  UNL1        0.0828
      5 N         138.8932  139.0379  159.1091 N.ar    1  UNL1       -0.2422
      6 C         139.0835  140.2537  158.2515 C.ar    1  UNL1        0.1175
      7 C         139.3120  141.5925  158.8883 C.ar    1  UNL1        0.0989
      8 C         139.3502  141.7155  160.3827 C.ar    1  UNL1        0.0826
      9 C         139.1598  140.4997  161.2404 C.ar    1  UNL1        0.0350
     10 C         139.1980  140.6226  162.7348 C.ar    1  UNL1        0.0030
     11 N         139.5920  143.1561  160.7232 N.ar    1  UNL1       -0.2815
     12 C         139.7033  143.9235  159.4392 C.ar    1  UNL1        0.3316
     13 O         139.9451  145.3985  159.3117 O.2     1  UNL1       -0.2463
     14 N         139.5302  142.9571  158.3051 N.ar    1  UNL1       -0.2765
     15 C         139.5687  143.2959  156.8444 C.3     1  UNL1        0.1352
     16 C         139.1221  139.7758  168.0760 C.ar    1  UNL1        0.2249
     17 C         140.0421  140.6066  167.2314 C.ar    1  UNL1        0.0577
     18 C         140.0039  140.4836  165.7368 C.ar    1  UNL1        0.0063
     19 C         139.0458  139.5298  165.0870 C.ar    1  UNL1        0.0194
     20 C         138.1258  138.6991  165.9317 C.ar    1  UNL1        0.1020
     21 N         138.1639  138.8220  167.4261 N.ar    1  UNL1       -0.2101
     22 O         139.1602  139.8988  169.5704 O.3     1  UNL1       -0.4602
     23 C         139.0529  141.2490  170.2148 C.3     1  UNL1        0.2085
     24 C         140.2828  141.9306  170.7373 C.3     1  UNL1        0.0647
     25 C         141.4782  141.1176  171.1372 C.3     1  UNL1        0.0760
     26 C         142.5670  139.2077  169.7526 C.3     1  UNL1        0.0897
     27 N         142.4586  140.6637  170.0967 N.3     1  UNL1       -0.2702
     28 C         143.3308  141.6659  169.4002 C.3     1  UNL1        0.0897
     29 C         139.7030  143.7288  162.1051 C.3     1  UNL1        0.0949
     30 C         141.0522  143.9148  162.7337 C.3     1  UNL1        0.0548
     31 C         141.1633  144.4875  164.1157 C.3     1  UNL1        0.1441
     32 O         139.9251  144.8742  164.8690 O.3     1  UNL1       -0.3536
     33 C         138.5760  144.6882  164.2404 C.3     1  UNL1        0.1441
     34 C         138.4649  144.1155  162.8585 C.3     1  UNL1        0.0548
@<TRIPOS>BOND
     1    26    27    1
     2    27    28    1
     3    27    25    1
     4    25    24    1
     5    24    23    1
     6    23    22    1
     7    22    16    1
     8    16    17   ar
     9    17    18   ar
    10    18    19   ar
    11    19     1    1
    12     1     2   ar
    13     2     3   ar
    14     3     4   ar
    15     4     5   ar
    16     5     6   ar
    17     6     7   ar
    18     7     8   ar
    19     8     9   ar
    20     9    10   ar
    21     8    11   ar
    22    11    29    1
    23    29    30    1
    24    30    31    1
    25    31    32    1
    26    32    33    1
    27    33    34    1
    28    11    12   ar
    29    12    13    2
    30    12    14   ar
    31    14    15    1
    32    19    20   ar
    33    20    21   ar
    34    21    16   ar
    35    10     1   ar
    36    34    29    1
    37     9     4   ar
    38    14     7   ar
@<TRIPOS>MOLECULE
*****
 34 38 0 0 0
SMALL
GASTEIGER

@<TRIPOS>ATOM
      1 C         139.0690  139.0276  164.9857 C.ar    1  UNL1        0.0016
      2 C         137.8818  138.4728  165.7155 C.ar    1  UNL1        0.0016
      3 C         137.7358  138.6988  167.1911 C.ar    1  UNL1        0.0191
      4 C         138.7770  139.4795  167.9370 C.ar    1  UNL1        0.0828
      5 N         138.6309  139.7055  169.4127 N.ar    1  UNL1       -0.2422
      6 C         139.6721  140.4863  170.1585 C.ar    1  UNL1        0.1175
      7 C         140.8594  141.0411  169.4286 C.ar    1  UNL1        0.0989
      8 C         141.0054  140.8151  167.9530 C.ar    1  UNL1        0.0826
      9 C         139.9642  140.0343  167.2072 C.ar    1  UNL1        0.0350
     10 C         140.1102  139.8083  165.7315 C.ar    1  UNL1        0.0030
     11 N         142.2742  141.4786  167.5058 N.ar    1  UNL1       -0.2815
     12 C         142.9122  142.1146  168.7051 C.ar    1  UNL1        0.3316
     13 O         144.1989  142.8858  168.7143 O.2     1  UNL1       -0.2463
     14 N         142.0378  141.8442  169.8935 N.ar    1  UNL1       -0.2765
     15 C         142.2965  142.2974  171.2998 C.3     1  UNL1        0.1352
     16 C         139.5072  138.3496  160.5586 C.ar    1  UNL1        0.2249
     17 C         138.3968  139.2136  161.0787 C.ar    1  UNL1        0.0577
     18 C         138.2508  139.4396  162.5545 C.ar    1  UNL1        0.0063
     19 C         139.2151  138.8016  163.5100 C.ar    1  UNL1        0.0194
     20 C         140.3255  137.9376  162.9898 C.ar    1  UNL1        0.1020
     21 N         140.4716  137.7116  161.5142 N.ar    1  UNL1       -0.2101
     22 O         139.6533  138.1236  159.0830 O.3     1  UNL1       -0.4602
     23 C         140.3974  139.1181  158.2420 C.3     1  UNL1        0.2085
     24 C         141.8142  138.8433  157.8328 C.3     1  UNL1        0.0647
     25 C         142.7299  138.0955  158.7559 C.3     1  UNL1        0.0760
     26 C         143.9697  138.1401  161.0387 C.3     1  UNL1        0.0897
     27 N         143.5248  138.8389  159.7881 N.3     1  UNL1       -0.2702
     28 C         143.8748  140.2811  159.5698 C.3     1  UNL1        0.0897
     29 C         142.8106  141.5019  166.1052 C.3     1  UNL1        0.0949
     30 C         142.6258  142.7214  165.2515 C.3     1  UNL1        0.0548
     31 C         143.1622  142.7448  163.8509 C.3     1  UNL1        0.1441
     32 O         143.8835  141.5487  163.3040 O.3     1  UNL1       -0.3536
     33 C         144.0683  140.3293  164.1576 C.3     1  UNL1        0.1441
     34 C         143.5319  140.3058  165.5582 C.3     1  UNL1        0.0548
@<TRIPOS>BOND
     1    26    27    1
     2    27    28    1
     3    27    25    1
     4    25    24    1
     5    24    23    1
     6    23    22    1
     7    22    16    1
     8    16    17   ar
     9    17    18   ar
    10    18    19   ar
    11    19     1    1
    12     1     2   ar
    13     2     3   ar
    14     3     4   ar
    15     4     5   ar
    16     5     6   ar
    17     6     7   ar
    18     7     8   ar
    19     8     9   ar
    20     9    10   ar
    21     8    11   ar
    22    11    29    1
    23    29    30    1
    24    30    31    1
    25    31    32    1
    26    32    33    1
    27    33    34    1
    28    11    12   ar
    29    12    13    2
    30    12    14   ar
    31    14    15    1
    32    19    20   ar
    33    20    21   ar
    34    21    16   ar
    35    10     1   ar
    36    34    29    1
    37     9     4   ar
    38    14     7   ar
@<TRIPOS>MOLECULE
*****
 34 38 0 0 0
SMALL
GASTEIGER

@<TRIPOS>ATOM
      1 C         143.5323  141.4473  163.4565 C.ar    1  UNL1        0.0016
      2 C         144.5222  142.4181  164.0288 C.ar    1  UNL1        0.0016
      3 C         144.4037  142.8547  165.4589 C.ar    1  UNL1        0.0191
      4 C         143.2953  142.3204  166.3168 C.ar    1  UNL1        0.0828
      5 N         143.1768  142.7570  167.7470 N.ar    1  UNL1       -0.2422
      6 C         142.0684  142.2228  168.6049 C.ar    1  UNL1        0.1175
      7 C         141.0784  141.2519  168.0326 C.ar    1  UNL1        0.0989
      8 C         141.1970  140.8153  166.6024 C.ar    1  UNL1        0.0826
      9 C         142.3054  141.3496  165.7446 C.ar    1  UNL1        0.0350
     10 C         142.4239  140.9130  164.3144 C.ar    1  UNL1        0.0030
     11 N         140.0814  139.8540  166.3173 N.ar    1  UNL1       -0.2815
     12 C         139.2735  139.6964  167.5713 C.ar    1  UNL1        0.3316
     13 O         138.0619  138.8274  167.7362 O.2     1  UNL1       -0.2463
     14 N         139.8897  140.5604  168.6314 N.ar    1  UNL1       -0.2765
     15 C         139.4026  140.7071  170.0425 C.3     1  UNL1        0.1352
     16 C         143.8878  140.1374  159.1660 C.ar    1  UNL1        0.2249
     17 C         143.4957  141.5487  159.4893 C.ar    1  UNL1        0.0577
     18 C         143.3772  141.9853  160.9195 C.ar    1  UNL1        0.0063
     19 C         143.6508  141.0106  162.0263 C.ar    1  UNL1        0.0194
     20 C         144.0428  139.5993  161.7031 C.ar    1  UNL1        0.1020
     21 N         144.1613  139.1627  160.2730 N.ar    1  UNL1       -0.2101
     22 O         144.0063  139.7007  157.7359 O.3     1  UNL1       -0.4602
     23 C         142.8516  139.0216  157.0610 C.3     1  UNL1        0.2085
     24 C         142.2470  137.7901  157.6676 C.3     1  UNL1        0.0647
     25 C         142.0393  136.5648  156.8276 C.3     1  UNL1        0.0760
     26 C         144.1420  135.9436  155.4337 C.3     1  UNL1        0.0897
     27 N         143.1884  135.6412  156.5515 N.3     1  UNL1       -0.2702
     28 C         143.3841  134.4151  157.3932 C.3     1  UNL1        0.0897
     29 C         139.8198  139.1702  165.0081 C.3     1  UNL1        0.0949
     30 C         140.6585  137.9978  164.5936 C.3     1  UNL1        0.0548
     31 C         140.3969  137.3139  163.2843 C.3     1  UNL1        0.1441
     32 O         139.2966  137.8026  162.3897 O.3     1  UNL1       -0.3536
     33 C         138.4579  138.9751  162.8042 C.3     1  UNL1        0.1441
     34 C         138.7194  139.6589  164.1134 C.3     1  UNL1        0.0548
@<TRIPOS>BOND
     1    26    27    1
     2    27    28    1
     3    27    25    1
     4    25    24    1
     5    24    23    1
     6    23    22    1
     7    22    16    1
     8    16    17   ar
     9    17    18   ar
    10    18    19   ar
    11    19     1    1
    12     1     2   ar
    13     2     3   ar
    14     3     4   ar
    15     4     5   ar
    16     5     6   ar
    17     6     7   ar
    18     7     8   ar
    19     8     9   ar
    20     9    10   ar
    21     8    11   ar
    22    11    29    1
    23    29    30    1
    24    30    31    1
    25    31    32    1
    26    32    33    1
    27    33    34    1
    28    11    12   ar
    29    12    13    2
    30    12    14   ar
    31    14    15    1
    32    19    20   ar
    33    20    21   ar
    34    21    16   ar
    35    10     1   ar
    36    34    29    1
    37     9     4   ar
    38    14     7   ar
@<TRIPOS>MOLECULE
*****
 34 38 0 0 0
SMALL
GASTEIGER

@<TRIPOS>ATOM
      1 C         139.3932  139.2476  164.6507 C.ar    1  UNL1        0.0016
      2 C         138.1537  138.6466  165.2443 C.ar    1  UNL1        0.0016
      3 C         137.8851  138.7804  166.7139 C.ar    1  UNL1        0.0191
      4 C         138.8560  139.5151  167.5900 C.ar    1  UNL1        0.0828
      5 N         138.5874  139.6488  169.0597 N.ar    1  UNL1       -0.2422
      6 C         139.5583  140.3835  169.9358 C.ar    1  UNL1        0.1175
      7 C         140.7979  140.9845  169.3422 C.ar    1  UNL1        0.0989
      8 C         141.0665  140.8508  167.8725 C.ar    1  UNL1        0.0826
      9 C         140.0956  140.1160  166.9964 C.ar    1  UNL1        0.0350
     10 C         140.3642  139.9823  165.5268 C.ar    1  UNL1        0.0030
     11 N         142.3632  141.5428  167.5735 N.ar    1  UNL1       -0.2815
     12 C         142.8960  142.1043  168.8583 C.ar    1  UNL1        0.3316
     13 O         144.1723  142.8755  169.0214 O.2     1  UNL1       -0.2463
     14 N         141.9286  141.7592  169.9515 N.ar    1  UNL1       -0.2765
     15 C         142.0674  142.1247  171.3996 C.3     1  UNL1        0.1352
     16 C         140.1992  138.8465  160.2416 C.ar    1  UNL1        0.2249
     17 C         139.0665  138.0892  160.8689 C.ar    1  UNL1        0.0577
     18 C         138.7978  138.2230  162.3386 C.ar    1  UNL1        0.0063
     19 C         139.6619  139.1139  163.1810 C.ar    1  UNL1        0.0194
     20 C         140.7946  139.8711  162.5537 C.ar    1  UNL1        0.1020
     21 N         141.0633  139.7374  161.0841 N.ar    1  UNL1       -0.2101
     22 O         140.4679  138.7128  158.7720 O.3     1  UNL1       -0.4602
     23 C         141.7682  138.1355  158.2968 C.3     1  UNL1        0.2085
     24 C         141.8027  137.2754  157.0683 C.3     1  UNL1        0.0647
     25 C         142.9872  136.3945  156.8025 C.3     1  UNL1        0.0760
     26 C         143.5643  134.0495  157.7608 C.3     1  UNL1        0.0897
     27 N         142.8224  134.9038  156.7760 N.3     1  UNL1       -0.2702
     28 C         141.9156  134.2674  155.7648 C.3     1  UNL1        0.0897
     29 C         143.0130  141.6539  166.2261 C.3     1  UNL1        0.0949
     30 C         142.9444  142.9444  165.4645 C.3     1  UNL1        0.0548
     31 C         143.5942  143.0556  164.1171 C.3     1  UNL1        0.1441
     32 O         144.3126  141.8763  163.5313 O.3     1  UNL1       -0.3536
     33 C         144.3812  140.5858  164.2929 C.3     1  UNL1        0.1441
     34 C         143.7315  140.4746  165.6403 C.3     1  UNL1        0.0548
@<TRIPOS>BOND
     1    26    27    1
     2    27    28    1
     3    27    25    1
     4    25    24    1
     5    24    23    1
     6    23    22    1
     7    22    16    1
     8    16    17   ar
     9    17    18   ar
    10    18    19   ar
    11    19     1    1
    12     1     2   ar
    13     2     3   ar
    14     3     4   ar
    15     4     5   ar
    16     5     6   ar
    17     6     7   ar
    18     7     8   ar
    19     8     9   ar
    20     9    10   ar
    21     8    11   ar
    22    11    29    1
    23    29    30    1
    24    30    31    1
    25    31    32    1
    26    32    33    1
    27    33    34    1
    28    11    12   ar
    29    12    13    2
    30    12    14   ar
    31    14    15    1
    32    19    20   ar
    33    20    21   ar
    34    21    16   ar
    35    10     1   ar
    36    34    29    1
    37     9     4   ar
    38    14     7   ar
@<TRIPOS>MOLECULE
*****
 34 38 0 0 0
SMALL
GASTEIGER

@<TRIPOS>ATOM
      1 C         140.7733  144.0753  163.6241 C.ar    1  UNL1        0.0016
      2 C         139.6573  145.0624  163.4506 C.ar    1  UNL1        0.0016
      3 C         139.3644  145.6324  162.0945 C.ar    1  UNL1        0.0191
      4 C         140.1874  145.2154  160.9118 C.ar    1  UNL1        0.0828
      5 N         139.8944  145.7855  159.5556 N.ar    1  UNL1       -0.2422
      6 C         140.7175  145.3684  158.3729 C.ar    1  UNL1        0.1175
      7 C         141.8335  144.3813  158.5465 C.ar    1  UNL1        0.0989
      8 C         142.1265  143.8112  159.9026 C.ar    1  UNL1        0.0826
      9 C         141.3034  144.2283  161.0853 C.ar    1  UNL1        0.0350
     10 C         141.5964  143.6582  162.4414 C.ar    1  UNL1        0.0030
     11 N         143.2817  142.8641  159.7676 N.ar    1  UNL1       -0.2815
     12 C         143.7027  142.8487  158.3280 C.ar    1  UNL1        0.3316
     13 O         144.8223  142.0380  157.7453 O.2     1  UNL1       -0.2463
     14 N         142.8076  143.7865  157.5733 N.ar    1  UNL1       -0.2765
     15 C         142.8750  144.0781  156.1035 C.3     1  UNL1        0.1352
     16 C         141.6524  142.3650  167.6926 C.ar    1  UNL1        0.2249
     17 C         140.2950  142.9288  167.3933 C.ar    1  UNL1        0.0577
     18 C         140.0020  143.4989  166.0371 C.ar    1  UNL1        0.0063
     19 C         141.0663  143.5052  164.9803 C.ar    1  UNL1        0.0194
     20 C         142.4238  142.9415  165.2796 C.ar    1  UNL1        0.1020
     21 N         142.7168  142.3714  166.6357 N.ar    1  UNL1       -0.2101
     22 O         141.9454  141.7949  169.0487 O.3     1  UNL1       -0.4602
     23 C         142.8683  140.6204  169.1850 C.3     1  UNL1        0.2085
     24 C         142.4944  139.2988  168.5820 C.3     1  UNL1        0.0647
     25 C         142.9829  138.9348  167.2113 C.3     1  UNL1        0.0760
     26 C         140.6180  139.3535  166.2204 C.3     1  UNL1        0.0897
     27 N         142.0100  138.8136  166.0761 N.3     1  UNL1       -0.2702
     28 C         142.4291  138.1524  164.7965 C.3     1  UNL1        0.0897
     29 C         143.9063  142.0714  160.8774 C.3     1  UNL1        0.0949
     30 C         143.5992  140.6101  161.0201 C.3     1  UNL1        0.0548
     31 C         144.2238  139.8173  162.1299 C.3     1  UNL1        0.1441
     32 O         145.1553  140.4859  163.0969 O.3     1  UNL1       -0.3536
     33 C         145.4624  141.9472  162.9542 C.3     1  UNL1        0.1441
     34 C         144.8379  142.7399  161.8444 C.3     1  UNL1        0.0548
@<TRIPOS>BOND
     1    26    27    1
     2    27    28    1
     3    27    25    1
     4    25    24    1
     5    24    23    1
     6    23    22    1
     7    22    16    1
     8    16    17   ar
     9    17    18   ar
    10    18    19   ar
    11    19     1    1
    12     1     2   ar
    13     2     3   ar
    14     3     4   ar
    15     4     5   ar
    16     5     6   ar
    17     6     7   ar
    18     7     8   ar
    19     8     9   ar
    20     9    10   ar
    21     8    11   ar
    22    11    29    1
    23    29    30    1
    24    30    31    1
    25    31    32    1
    26    32    33    1
    27    33    34    1
    28    11    12   ar
    29    12    13    2
    30    12    14   ar
    31    14    15    1
    32    19    20   ar
    33    20    21   ar
    34    21    16   ar
    35    10     1   ar
    36    34    29    1
    37     9     4   ar
    38    14     7   ar
@<TRIPOS>MOLECULE
*****
 34 38 0 0 0
SMALL
GASTEIGER

@<TRIPOS>ATOM
      1 C         140.8019  143.3364  162.9665 C.ar    1  UNL1        0.0016
      2 C         140.3417  144.7469  162.7463 C.ar    1  UNL1        0.0016
      3 C         140.6336  145.4368  161.4468 C.ar    1  UNL1        0.0191
      4 C         141.3858  144.7161  160.3675 C.ar    1  UNL1        0.0828
      5 N         141.6777  145.4060  159.0679 N.ar    1  UNL1       -0.2422
      6 C         142.4299  144.6853  157.9886 C.ar    1  UNL1        0.1175
      7 C         142.8902  143.2747  158.2089 C.ar    1  UNL1        0.0989
      8 C         142.5982  142.5849  159.5085 C.ar    1  UNL1        0.0826
      9 C         141.8460  143.3056  160.5877 C.ar    1  UNL1        0.0350
     10 C         141.5541  142.6157  161.8873 C.ar    1  UNL1        0.0030
     11 N         143.1737  141.2015  159.4384 N.ar    1  UNL1       -0.2815
     12 C         143.8214  141.0363  158.0955 C.ar    1  UNL1        0.3316
     13 O         144.5214  139.8058  157.5995 O.2     1  UNL1       -0.2463
     14 N         143.6461  142.3177  157.3356 N.ar    1  UNL1       -0.2765
     15 C         144.1400  142.5936  155.9464 C.3     1  UNL1        0.1352
     16 C         139.9261  141.2667  166.8652 C.ar    1  UNL1        0.2249
     17 C         140.9353  142.3752  166.8148 C.ar    1  UNL1        0.0577
     18 C         141.2273  143.0651  165.5152 C.ar    1  UNL1        0.0063
     19 C         140.5100  142.6465  164.2661 C.ar    1  UNL1        0.0194
     20 C         139.5007  141.5380  164.3166 C.ar    1  UNL1        0.1020
     21 N         139.2087  140.8481  165.6161 N.ar    1  UNL1       -0.2101
     22 O         139.6341  140.5767  168.1647 O.3     1  UNL1       -0.4602
     23 C         140.7558  140.2296  169.0981 C.3     1  UNL1        0.2085
     24 C         140.5623  140.3497  170.5807 C.3     1  UNL1        0.0647
     25 C         140.7758  141.6697  171.2604 C.3     1  UNL1        0.0760
     26 C         140.4576  143.8928  169.9541 C.3     1  UNL1        0.0897
     27 N         141.3572  142.8216  170.4957 N.3     1  UNL1       -0.2702
     28 C         142.8383  142.9025  170.2726 C.3     1  UNL1        0.0897
     29 C         143.1124  140.1652  160.5211 C.3     1  UNL1        0.0949
     30 C         142.0036  139.1549  160.5303 C.3     1  UNL1        0.0548
     31 C         141.9422  138.1185  161.6130 C.3     1  UNL1        0.1441
     32 O         142.9895  138.0924  162.6865 O.3     1  UNL1       -0.3536
     33 C         144.0983  139.1027  162.6772 C.3     1  UNL1        0.1441
     34 C         144.1597  140.1390  161.5946 C.3     1  UNL1        0.0548
@<TRIPOS>BOND
     1    26    27    1
     2    27    28    1
     3    27    25    1
     4    25    24    1
     5    24    23    1
     6    23    22    1
     7    22    16    1
     8    16    17   ar
     9    17    18   ar
    10    18    19   ar
    11    19     1    1
    12     1     2   ar
    13     2     3   ar
    14     3     4   ar
    15     4     5   ar
    16     5     6   ar
    17     6     7   ar
    18     7     8   ar
    19     8     9   ar
    20     9    10   ar
    21     8    11   ar
    22    11    29    1
    23    29    30    1
    24    30    31    1
    25    31    32    1
    26    32    33    1
    27    33    34    1
    28    11    12   ar
    29    12    13    2
    30    12    14   ar
    31    14    15    1
    32    19    20   ar
    33    20    21   ar
    34    21    16   ar
    35    10     1   ar
    36    34    29    1
    37     9     4   ar
    38    14     7   ar
