@<TRIPOS>MOLECULE
*****
 34 39 0 0 0
SMALL
GASTEIGER

@<TRIPOS>ATOM
      1 C         140.8458  139.8749  164.7885 C.3     1  UNL1        0.0339
      2 C         141.0729  141.1078  163.9648 C.ar    1  UNL1        0.0095
      3 C         141.4771  142.3901  164.6297 C.ar    1  UNL1        0.0730
      4 C         141.7042  143.6229  163.8060 C.ar    1  UNL1        0.1531
      5 F         142.1084  144.9053  164.4710 F       1  UNL1       -0.2029
      6 C         141.5272  143.5734  162.3173 C.ar    1  UNL1        0.0324
      7 C         141.1231  142.2911  161.6524 C.ar    1  UNL1        0.0210
      8 C         140.9460  142.2415  160.1637 C.ar    1  UNL1        0.0428
      9 C         140.5418  140.9592  159.4987 C.ar    1  UNL1        0.0639
     10 C         140.3147  139.7263  160.3224 C.ar    1  UNL1        0.2610
     11 O         139.9105  138.4439  159.6574 O.2     1  UNL1       -0.2670
     12 N         140.4917  139.7758  161.8111 N.ar    1  UNL1       -0.2976
     13 C         140.8959  141.0582  162.4761 C.ar    1  UNL1        0.0598
     14 C         141.1732  143.4743  159.3399 C.ar    1  UNL1        0.1736
     15 N         142.4851  144.1749  159.1447 N.ar    1  UNL1       -0.1997
     16 O         142.2510  145.3566  158.2509 O.2     1  UNL1       -0.3503
     17 C         140.7945  145.3864  157.8938 C.ar    1  UNL1        0.2946
     18 S         140.1221  146.4012  157.0174 S.2     1  UNL1        0.0135
     19 N         140.1283  144.2231  158.5668 N.ar    1  UNL1       -0.1835
     20 H         143.3482  143.9063  159.5347 H       1  UNL1        0.2091
     21 N         141.6541  142.4397  166.1185 N.pl3   1  UNL1       -0.3059
     22 C         142.9412  142.2332  166.8607 C.3     1  UNL1        0.0909
     23 C         142.6578  142.3703  168.3272 C.3     1  UNL1        0.0244
     24 C         141.1955  142.6615  168.4914 C.3     1  UNL1        0.0344
     25 C         140.5752  142.7044  167.1263 C.3     1  UNL1        0.0921
     26 C         140.4792  142.8728  169.7923 C.3     1  UNL1        0.0406
     27 N         141.0917  144.1740  170.2185 N.3     1  UNL1       -0.3231
     28 C         139.5502  142.6322  170.9452 C.3     1  UNL1        0.0156
     29 C         139.6180  141.6450  169.8178 C.3     1  UNL1        0.0156
     30 H         141.7661  144.4785  169.5164 H       1  UNL1        0.1188
     31 H         141.5652  144.0499  171.1134 H       1  UNL1        0.1188
     32 C         140.2645  138.5430  162.6348 C.3     1  UNL1        0.0885
     33 C         140.7988  137.3129  163.3066 C.3     1  UNL1        0.0246
     34 C         139.3368  137.6378  163.3897 C.3     1  UNL1        0.0246
@<TRIPOS>BOND
     1     1     2    1
     2     2     3   ar
     3     3    21    1
     4    21    22    1
     5    22    23    1
     6    23    24    1
     7    24    26    1
     8    26    27    1
     9    26    28    1
    10    28    29    1
    11    24    25    1
    12     3     4   ar
    13     4     5    1
    14     4     6   ar
    15     6     7   ar
    16     7     8   ar
    17     8    14    1
    18    14    15   ar
    19    15    16   ar
    20    16    17   ar
    21    17    18    2
    22    17    19   ar
    23     8     9   ar
    24     9    10   ar
    25    10    11    2
    26    10    12   ar
    27    12    32    1
    28    32    33    1
    29    33    34    1
    30    12    13   ar
    31    13     2   ar
    32    25    21    1
    33    13     7   ar
    34    29    26    1
    35    19    14   ar
    36    34    32    1
    37    27    30    1
    38    27    31    1
    39    15    20    1
@<TRIPOS>MOLECULE
*****
 34 39 0 0 0
SMALL
GASTEIGER

@<TRIPOS>ATOM
      1 C         140.0600  140.8397  161.5348 C.3     1  UNL1        0.0339
      2 C         140.5312  141.6125  162.7309 C.ar    1  UNL1        0.0095
      3 C         141.3696  142.8426  162.5464 C.ar    1  UNL1        0.0730
      4 C         141.8408  143.6154  163.7425 C.ar    1  UNL1        0.1531
      5 F         142.6792  144.8455  163.5580 F       1  UNL1       -0.2029
      6 C         141.4736  143.1582  165.1231 C.ar    1  UNL1        0.0324
      7 C         140.6353  141.9282  165.3076 C.ar    1  UNL1        0.0210
      8 C         140.2680  141.4709  166.6882 C.ar    1  UNL1        0.0428
      9 C         139.4297  140.2409  166.8727 C.ar    1  UNL1        0.0639
     10 C         138.9585  139.4680  165.6766 C.ar    1  UNL1        0.2610
     11 O         138.1200  138.2379  165.8612 O.2     1  UNL1       -0.2670
     12 N         139.3256  139.9252  164.2960 N.ar    1  UNL1       -0.2976
     13 C         140.1640  141.1553  164.1115 C.ar    1  UNL1        0.0598
     14 C         140.7393  142.2437  167.8844 C.ar    1  UNL1        0.1736
     15 N         140.0131  143.3793  168.5424 N.ar    1  UNL1       -0.1997
     16 O         140.8444  143.8541  169.6972 O.2     1  UNL1       -0.3503
     17 C         142.0844  143.0119  169.7528 C.ar    1  UNL1        0.2946
     18 S         143.1945  143.1421  170.7532 S.2     1  UNL1        0.0135
     19 N         142.0194  142.0167  168.6324 N.ar    1  UNL1       -0.1835
     20 H         139.1435  143.7482  168.2651 H       1  UNL1        0.2091
     21 N         141.7368  143.2998  161.1657 N.pl3   1  UNL1       -0.3059
     22 C         142.9183  142.8337  160.3677 C.3     1  UNL1        0.0909
     23 C         142.8987  143.5492  159.0495 C.3     1  UNL1        0.0244
     24 C         141.7051  144.4577  159.0329 C.3     1  UNL1        0.0344
     25 C         140.9871  144.3035  160.3408 C.3     1  UNL1        0.0921
     26 C         141.3007  145.3615  157.9062 C.3     1  UNL1        0.0406
     27 N         142.5237  146.2249  157.8131 N.3     1  UNL1       -0.3231
     28 C         140.4715  145.9655  156.8119 C.3     1  UNL1        0.0156
     29 C         139.9372  144.8120  157.6081 C.3     1  UNL1        0.0156
     30 H         143.2025  145.9298  158.5149 H       1  UNL1        0.1188
     31 H         142.2662  147.1981  157.9772 H       1  UNL1        0.1188
     32 C         138.8544  139.1524  163.0999 C.3     1  UNL1        0.0885
     33 C         137.8552  138.9405  162.0014 C.3     1  UNL1        0.0246
     34 C         139.0374  138.0258  162.1267 C.3     1  UNL1        0.0246
@<TRIPOS>BOND
     1     1     2    1
     2     2     3   ar
     3     3    21    1
     4    21    22    1
     5    22    23    1
     6    23    24    1
     7    24    26    1
     8    26    27    1
     9    26    28    1
    10    28    29    1
    11    24    25    1
    12     3     4   ar
    13     4     5    1
    14     4     6   ar
    15     6     7   ar
    16     7     8   ar
    17     8    14    1
    18    14    15   ar
    19    15    16   ar
    20    16    17   ar
    21    17    18    2
    22    17    19   ar
    23     8     9   ar
    24     9    10   ar
    25    10    11    2
    26    10    12   ar
    27    12    32    1
    28    32    33    1
    29    33    34    1
    30    12    13   ar
    31    13     2   ar
    32    25    21    1
    33    13     7   ar
    34    29    26    1
    35    19    14   ar
    36    34    32    1
    37    27    30    1
    38    27    31    1
    39    15    20    1
@<TRIPOS>MOLECULE
*****
 34 39 0 0 0
SMALL
GASTEIGER

@<TRIPOS>ATOM
      1 C         142.3994  142.6049  164.7159 C.3     1  UNL1        0.0339
      2 C         141.9513  141.5108  163.7928 C.ar    1  UNL1        0.0095
      3 C         141.6835  140.1370  164.3322 C.ar    1  UNL1        0.0730
      4 C         141.2355  139.0430  163.4091 C.ar    1  UNL1        0.1531
      5 F         140.9677  137.6691  163.9486 F       1  UNL1       -0.2029
      6 C         141.0551  139.3227  161.9465 C.ar    1  UNL1        0.0324
      7 C         141.3229  140.6964  161.4070 C.ar    1  UNL1        0.0210
      8 C         141.1426  140.9762  159.9444 C.ar    1  UNL1        0.0428
      9 C         141.4103  142.3499  159.4049 C.ar    1  UNL1        0.0639
     10 C         141.8584  143.4440  160.3281 C.ar    1  UNL1        0.2610
     11 O         142.1261  144.8178  159.7886 O.2     1  UNL1       -0.2670
     12 N         142.0387  143.1643  161.7907 N.ar    1  UNL1       -0.2976
     13 C         141.7710  141.7905  162.3302 C.ar    1  UNL1        0.0598
     14 C         140.6945  139.8821  159.0212 C.ar    1  UNL1        0.1736
     15 N         139.2742  139.4802  158.7543 N.ar    1  UNL1       -0.1997
     16 O         139.2900  138.3475  157.7710 O.2     1  UNL1       -0.3503
     17 C         140.7200  138.0494  157.4302 C.ar    1  UNL1        0.2946
     18 S         141.1981  136.9891  156.4830 S.2     1  UNL1        0.0135
     19 N         141.5880  138.9978  158.2029 N.ar    1  UNL1       -0.1835
     20 H         138.4725  139.8881  159.1542 H       1  UNL1        0.2091
     21 N         141.8639  139.8573  165.7949 N.pl3   1  UNL1       -0.3059
     22 C         143.0681  139.2279  166.4302 C.3     1  UNL1        0.0909
     23 C         142.8202  139.1394  167.9069 C.3     1  UNL1        0.0244
     24 C         141.4626  139.7142  168.1842 C.3     1  UNL1        0.0344
     25 C         140.8717  140.1579  166.8789 C.3     1  UNL1        0.0921
     26 C         140.8106  139.8257  169.5305 C.3     1  UNL1        0.0406
     27 N         141.8591  139.1740  170.3825 N.3     1  UNL1       -0.3231
     28 C         139.7945  140.1636  170.5808 C.3     1  UNL1        0.0156
     29 C         139.5357  140.5161  169.1460 C.3     1  UNL1        0.0156
     30 H         142.6398  138.8800  169.7955 H       1  UNL1        0.1188
     31 H         141.4598  138.3601  170.8499 H       1  UNL1        0.1188
     32 C         142.4868  144.2584  162.7138 C.3     1  UNL1        0.0885
     33 C         142.1596  145.3587  163.6794 C.3     1  UNL1        0.0246
     34 C         143.5901  145.0531  163.3472 C.3     1  UNL1        0.0246
@<TRIPOS>BOND
     1     1     2    1
     2     2     3   ar
     3     3    21    1
     4    21    22    1
     5    22    23    1
     6    23    24    1
     7    24    26    1
     8    26    27    1
     9    26    28    1
    10    28    29    1
    11    24    25    1
    12     3     4   ar
    13     4     5    1
    14     4     6   ar
    15     6     7   ar
    16     7     8   ar
    17     8    14    1
    18    14    15   ar
    19    15    16   ar
    20    16    17   ar
    21    17    18    2
    22    17    19   ar
    23     8     9   ar
    24     9    10   ar
    25    10    11    2
    26    10    12   ar
    27    12    32    1
    28    32    33    1
    29    33    34    1
    30    12    13   ar
    31    13     2   ar
    32    25    21    1
    33    13     7   ar
    34    29    26    1
    35    19    14   ar
    36    34    32    1
    37    27    30    1
    38    27    31    1
    39    15    20    1
@<TRIPOS>MOLECULE
*****
 34 39 0 0 0
SMALL
GASTEIGER

@<TRIPOS>ATOM
      1 C         140.3170  142.6924  164.2419 C.3     1  UNL1        0.0339
      2 C         140.5773  141.5206  163.3423 C.ar    1  UNL1        0.0095
      3 C         140.3163  140.1269  163.8315 C.ar    1  UNL1        0.0730
      4 C         140.5766  138.9552  162.9320 C.ar    1  UNL1        0.1531
      5 F         140.3156  137.5614  163.4213 F       1  UNL1       -0.2029
      6 C         141.0980  139.1771  161.5431 C.ar    1  UNL1        0.0324
      7 C         141.3590  140.5708  161.0539 C.ar    1  UNL1        0.0210
      8 C         141.8804  140.7928  159.6650 C.ar    1  UNL1        0.0428
      9 C         142.1414  142.1865  159.1757 C.ar    1  UNL1        0.0639
     10 C         141.8811  143.3583  160.0753 C.ar    1  UNL1        0.2610
     11 O         142.1421  144.7521  159.5860 O.2     1  UNL1       -0.2670
     12 N         141.3597  143.1363  161.4641 N.ar    1  UNL1       -0.2976
     13 C         141.0987  141.7426  161.9535 C.ar    1  UNL1        0.0598
     14 C         142.1407  139.6211  158.7654 C.ar    1  UNL1        0.1736
     15 N         143.4697  138.9650  158.5344 N.ar    1  UNL1       -0.1997
     16 O         143.2681  137.8381  157.5651 O.2     1  UNL1       -0.3503
     17 C         141.8145  137.7977  157.1971 C.ar    1  UNL1        0.2946
     18 S         141.1707  136.8261  156.2530 S.2     1  UNL1        0.0135
     19 N         141.1177  138.8997  157.9389 N.ar    1  UNL1       -0.1835
     20 H         144.3242  139.2279  158.9465 H       1  UNL1        0.2091
     21 N         139.7950  139.9049  165.2204 N.pl3   1  UNL1       -0.3059
     22 C         138.4398  139.3707  165.5786 C.3     1  UNL1        0.0909
     23 C         138.3445  139.3137  167.0744 C.3     1  UNL1        0.0244
     24 C         139.6408  139.8127  167.6408 C.3     1  UNL1        0.0344
     25 C         140.5372  140.1781  166.4950 C.3     1  UNL1        0.0921
     26 C         139.9809  139.9264  169.0973 C.3     1  UNL1        0.0406
     27 N         138.6017  139.9364  169.6868 N.3     1  UNL1       -0.3231
     28 C         140.8000  140.0366  170.3490 C.3     1  UNL1        0.0156
     29 C         141.4782  139.9560  169.0136 C.3     1  UNL1        0.0156
     30 H         137.9117  139.8657  168.9389 H       1  UNL1        0.1188
     31 H         138.4579  140.8055  170.2010 H       1  UNL1        0.1188
     32 C         141.0994  144.3081  162.3637 C.3     1  UNL1        0.0885
     33 C         140.1859  145.3927  162.8526 C.3     1  UNL1        0.0246
     34 C         141.5620  145.2529  163.4329 C.3     1  UNL1        0.0246
@<TRIPOS>BOND
     1     1     2    1
     2     2     3   ar
     3     3    21    1
     4    21    22    1
     5    22    23    1
     6    23    24    1
     7    24    26    1
     8    26    27    1
     9    26    28    1
    10    28    29    1
    11    24    25    1
    12     3     4   ar
    13     4     5    1
    14     4     6   ar
    15     6     7   ar
    16     7     8   ar
    17     8    14    1
    18    14    15   ar
    19    15    16   ar
    20    16    17   ar
    21    17    18    2
    22    17    19   ar
    23     8     9   ar
    24     9    10   ar
    25    10    11    2
    26    10    12   ar
    27    12    32    1
    28    32    33    1
    29    33    34    1
    30    12    13   ar
    31    13     2   ar
    32    25    21    1
    33    13     7   ar
    34    29    26    1
    35    19    14   ar
    36    34    32    1
    37    27    30    1
    38    27    31    1
    39    15    20    1
@<TRIPOS>MOLECULE
*****
 34 39 0 0 0
SMALL
GASTEIGER

@<TRIPOS>ATOM
      1 C         139.9729  141.5732  164.6523 C.3     1  UNL1        0.0339
      2 C         141.1372  141.3012  163.7466 C.ar    1  UNL1        0.0095
      3 C         142.4177  140.7626  164.3124 C.ar    1  UNL1        0.0730
      4 C         143.5821  140.4905  163.4067 C.ar    1  UNL1        0.1531
      5 F         144.8626  139.9519  163.9726 F       1  UNL1       -0.2029
      6 C         143.4659  140.7571  161.9352 C.ar    1  UNL1        0.0324
      7 C         142.1854  141.2957  161.3693 C.ar    1  UNL1        0.0210
      8 C         142.0692  141.5622  159.8977 C.ar    1  UNL1        0.0428
      9 C         140.7887  142.1008  159.3319 C.ar    1  UNL1        0.0639
     10 C         139.6244  142.3729  160.2376 C.ar    1  UNL1        0.2610
     11 O         138.3438  142.9115  159.6717 O.2     1  UNL1       -0.2670
     12 N         139.7405  142.1063  161.7091 N.ar    1  UNL1       -0.2976
     13 C         141.0211  141.5677  162.2750 C.ar    1  UNL1        0.0598
     14 C         143.2336  141.2902  158.9920 C.ar    1  UNL1        0.1736
     15 N         143.6893  139.9402  158.5232 N.ar    1  UNL1       -0.1997
     16 O         144.8840  140.1360  157.6376 O.2     1  UNL1       -0.3503
     17 C         145.1666  141.6071  157.5590 C.ar    1  UNL1        0.2946
     18 S         146.2747  142.2517  156.7801 S.2     1  UNL1        0.0135
     19 N         144.1466  142.3204  158.3961 N.ar    1  UNL1       -0.1835
     20 H         143.2768  139.0771  158.7560 H       1  UNL1        0.2091
     21 N         142.5340  140.4960  165.7840 N.pl3   1  UNL1       -0.3059
     22 C         142.6510  139.1469  166.4291 C.3     1  UNL1        0.0909
     23 C         142.7429  139.3488  167.9125 C.3     1  UNL1        0.0244
     24 C         142.6827  140.8228  168.1843 C.3     1  UNL1        0.0344
     25 C         142.5535  141.5318  166.8688 C.3     1  UNL1        0.0921
     26 C         142.7413  141.4735  169.5346 C.3     1  UNL1        0.0406
     27 N         143.4103  140.3845  170.3196 N.3     1  UNL1       -0.3231
     28 C         142.5675  142.5023  170.6121 C.3     1  UNL1        0.0156
     29 C         142.0925  142.7884  169.2183 C.3     1  UNL1        0.0156
     30 H         143.5995  139.5909  169.7073 H       1  UNL1        0.1188
     31 H         142.7986  140.0887  171.0804 H       1  UNL1        0.1188
     32 C         138.5762  142.3784  162.6149 C.3     1  UNL1        0.0885
     33 C         137.3466  141.9008  163.3289 C.3     1  UNL1        0.0246
     34 C         137.7892  143.3271  163.4695 C.3     1  UNL1        0.0246
@<TRIPOS>BOND
     1     1     2    1
     2     2     3   ar
     3     3    21    1
     4    21    22    1
     5    22    23    1
     6    23    24    1
     7    24    26    1
     8    26    27    1
     9    26    28    1
    10    28    29    1
    11    24    25    1
    12     3     4   ar
    13     4     5    1
    14     4     6   ar
    15     6     7   ar
    16     7     8   ar
    17     8    14    1
    18    14    15   ar
    19    15    16   ar
    20    16    17   ar
    21    17    18    2
    22    17    19   ar
    23     8     9   ar
    24     9    10   ar
    25    10    11    2
    26    10    12   ar
    27    12    32    1
    28    32    33    1
    29    33    34    1
    30    12    13   ar
    31    13     2   ar
    32    25    21    1
    33    13     7   ar
    34    29    26    1
    35    19    14   ar
    36    34    32    1
    37    27    30    1
    38    27    31    1
    39    15    20    1
@<TRIPOS>MOLECULE
*****
 34 39 0 0 0
SMALL
GASTEIGER

@<TRIPOS>ATOM
      1 C         139.0975  142.4929  164.1105 C.3     1  UNL1        0.0339
      2 C         139.3963  141.3046  163.2453 C.ar    1  UNL1        0.0095
      3 C         139.4831  139.9364  163.8542 C.ar    1  UNL1        0.0730
      4 C         139.7819  138.7481  162.9890 C.ar    1  UNL1        0.1531
      5 F         139.8686  137.3799  163.5979 F       1  UNL1       -0.2029
      6 C         139.9940  138.9278  161.5150 C.ar    1  UNL1        0.0324
      7 C         139.9073  140.2959  160.9062 C.ar    1  UNL1        0.0210
      8 C         140.1194  140.4757  159.4322 C.ar    1  UNL1        0.0428
      9 C         140.0327  141.8438  158.8233 C.ar    1  UNL1        0.0639
     10 C         139.7339  143.0322  159.6885 C.ar    1  UNL1        0.2610
     11 O         139.6472  144.4004  159.0796 O.2     1  UNL1       -0.2670
     12 N         139.5218  142.8525  161.1625 N.ar    1  UNL1       -0.2976
     13 C         139.6085  141.4843  161.7714 C.ar    1  UNL1        0.0598
     14 C         140.4183  139.2874  158.5670 C.ar    1  UNL1        0.1736
     15 N         139.4126  138.4765  157.8048 N.ar    1  UNL1       -0.1997
     16 O         140.1480  137.3892  157.0789 O.2     1  UNL1       -0.3503
     17 C         141.6083  137.5281  157.3925 C.ar    1  UNL1        0.2946
     18 S         142.7084  136.6484  156.8769 S.2     1  UNL1        0.0135
     19 N         141.7753  138.7012  158.3122 N.ar    1  UNL1       -0.1835
     20 H         138.4405  138.6308  157.7845 H       1  UNL1        0.2091
     21 N         139.2709  139.7566  165.3282 N.pl3   1  UNL1       -0.3059
     22 C         138.0737  139.1269  165.9763 C.3     1  UNL1        0.0909
     23 C         138.2815  139.1561  167.4615 C.3     1  UNL1        0.0244
     24 C         139.6073  139.8038  167.7314 C.3     1  UNL1        0.0344
     25 C         140.2188  140.1750  166.4129 C.3     1  UNL1        0.0921
     26 C         140.2150  140.0391  169.0825 C.3     1  UNL1        0.0406
     27 N         141.6599  139.7913  168.7649 N.3     1  UNL1       -0.3231
     28 C         140.3208  140.3604  170.5438 C.3     1  UNL1        0.0156
     29 C         138.9811  140.3686  169.8691 C.3     1  UNL1        0.0156
     30 H         141.7551  139.5540  167.7775 H       1  UNL1        0.1188
     31 H         142.0057  139.0195  169.3350 H       1  UNL1        0.1188
     32 C         139.2229  144.0408  162.0276 C.3     1  UNL1        0.0885
     33 C         139.6741  145.3007  162.7051 C.3     1  UNL1        0.0246
     34 C         138.2541  144.8392  162.8486 C.3     1  UNL1        0.0246
@<TRIPOS>BOND
     1     1     2    1
     2     2     3   ar
     3     3    21    1
     4    21    22    1
     5    22    23    1
     6    23    24    1
     7    24    26    1
     8    26    27    1
     9    26    28    1
    10    28    29    1
    11    24    25    1
    12     3     4   ar
    13     4     5    1
    14     4     6   ar
    15     6     7   ar
    16     7     8   ar
    17     8    14    1
    18    14    15   ar
    19    15    16   ar
    20    16    17   ar
    21    17    18    2
    22    17    19   ar
    23     8     9   ar
    24     9    10   ar
    25    10    11    2
    26    10    12   ar
    27    12    32    1
    28    32    33    1
    29    33    34    1
    30    12    13   ar
    31    13     2   ar
    32    25    21    1
    33    13     7   ar
    34    29    26    1
    35    19    14   ar
    36    34    32    1
    37    27    30    1
    38    27    31    1
    39    15    20    1
@<TRIPOS>MOLECULE
*****
 34 39 0 0 0
SMALL
GASTEIGER

@<TRIPOS>ATOM
      1 C         140.0388  142.1293  165.1665 C.3     1  UNL1        0.0339
      2 C         140.8695  141.3153  164.2192 C.ar    1  UNL1        0.0095
      3 C         141.9708  140.4439  164.7461 C.ar    1  UNL1        0.0730
      4 C         142.8015  139.6299  163.7987 C.ar    1  UNL1        0.1531
      5 F         143.9028  138.7584  164.3257 F       1  UNL1       -0.2029
      6 C         142.5309  139.6875  162.3245 C.ar    1  UNL1        0.0324
      7 C         141.4296  140.5589  161.7976 C.ar    1  UNL1        0.0210
      8 C         141.1590  140.6165  160.3233 C.ar    1  UNL1        0.0428
      9 C         140.0578  141.4880  159.7963 C.ar    1  UNL1        0.0639
     10 C         139.2270  142.3019  160.7437 C.ar    1  UNL1        0.2610
     11 O         138.1257  143.1734  160.2167 O.2     1  UNL1       -0.2670
     12 N         139.4976  142.2444  162.2179 N.ar    1  UNL1       -0.2976
     13 C         140.5989  141.3729  162.7449 C.ar    1  UNL1        0.0598
     14 C         141.9897  139.8026  159.3759 C.ar    1  UNL1        0.1736
     15 N         143.3510  140.1660  158.8613 N.ar    1  UNL1       -0.1997
     16 O         143.8076  139.0703  157.9442 O.2     1  UNL1       -0.3503
     17 C         142.7286  138.0297  157.8921 C.ar    1  UNL1        0.2946
     18 S         142.7664  136.7595  157.0951 S.2     1  UNL1        0.0135
     19 N         141.6051  138.4822  158.7769 N.ar    1  UNL1       -0.1835
     20 H         143.8561  140.9807  159.0859 H       1  UNL1        0.2091
     21 N         142.2414  140.3863  166.2204 N.pl3   1  UNL1       -0.3059
     22 C         142.3787  139.1399  167.0436 C.3     1  UNL1        0.0909
     23 C         142.6443  139.5482  168.4622 C.3     1  UNL1        0.0244
     24 C         142.6712  141.0471  168.5158 C.3     1  UNL1        0.0344
     25 C         142.4222  141.5650  167.1303 C.3     1  UNL1        0.0921
     26 C         142.9059  141.8814  169.7401 C.3     1  UNL1        0.0406
     27 N         143.9258  141.0340  170.4413 N.3     1  UNL1       -0.3231
     28 C         142.7865  143.0101  170.7207 C.3     1  UNL1        0.0156
     29 C         141.9676  143.0187  169.4640 C.3     1  UNL1        0.0156
     30 H         144.1194  140.2029  169.8825 H       1  UNL1        0.1188
     31 H         143.5658  140.7540  171.3536 H       1  UNL1        0.1188
     32 C         138.6669  143.0583  163.1652 C.3     1  UNL1        0.0885
     33 C         137.4709  143.1890  164.0610 C.3     1  UNL1        0.0246
     34 C         138.4241  144.3373  163.9102 C.3     1  UNL1        0.0246
@<TRIPOS>BOND
     1     1     2    1
     2     2     3   ar
     3     3    21    1
     4    21    22    1
     5    22    23    1
     6    23    24    1
     7    24    26    1
     8    26    27    1
     9    26    28    1
    10    28    29    1
    11    24    25    1
    12     3     4   ar
    13     4     5    1
    14     4     6   ar
    15     6     7   ar
    16     7     8   ar
    17     8    14    1
    18    14    15   ar
    19    15    16   ar
    20    16    17   ar
    21    17    18    2
    22    17    19   ar
    23     8     9   ar
    24     9    10   ar
    25    10    11    2
    26    10    12   ar
    27    12    32    1
    28    32    33    1
    29    33    34    1
    30    12    13   ar
    31    13     2   ar
    32    25    21    1
    33    13     7   ar
    34    29    26    1
    35    19    14   ar
    36    34    32    1
    37    27    30    1
    38    27    31    1
    39    15    20    1
@<TRIPOS>MOLECULE
*****
 34 39 0 0 0
SMALL
GASTEIGER

@<TRIPOS>ATOM
      1 C         140.8610  141.5511  162.6503 C.3     1  UNL1        0.0339
      2 C         139.8619  141.0072  161.6726 C.ar    1  UNL1        0.0095
      3 C         138.9480  139.8889  162.0778 C.ar    1  UNL1        0.0730
      4 C         137.9489  139.3450  161.1001 C.ar    1  UNL1        0.1531
      5 F         137.0351  138.2266  161.5054 F       1  UNL1       -0.2029
      6 C         137.8637  139.9194  159.7171 C.ar    1  UNL1        0.0324
      7 C         138.7775  141.0377  159.3118 C.ar    1  UNL1        0.0210
      8 C         138.6923  141.6121  157.9287 C.ar    1  UNL1        0.0428
      9 C         139.6062  142.7304  157.5235 C.ar    1  UNL1        0.0639
     10 C         140.6053  143.2743  158.5012 C.ar    1  UNL1        0.2610
     11 O         141.5191  144.3927  158.0959 O.2     1  UNL1       -0.2670
     12 N         140.6905  142.6999  159.8842 N.ar    1  UNL1       -0.2976
     13 C         139.7766  141.5816  160.2896 C.ar    1  UNL1        0.0598
     14 C         137.6932  141.0682  156.9510 C.ar    1  UNL1        0.1736
     15 N         137.8082  139.7746  156.2004 N.ar    1  UNL1       -0.1997
     16 O         136.5898  139.6293  155.3377 O.2     1  UNL1       -0.3503
     17 C         135.7218  140.8332  155.5550 C.ar    1  UNL1        0.2946
     18 S         134.4033  141.1008  154.8918 S.2     1  UNL1        0.0135
     19 N         136.4037  141.7225  156.5521 N.ar    1  UNL1       -0.1835
     20 H         138.5527  139.1335  156.2631 H       1  UNL1        0.2091
     21 N         139.0332  139.3144  163.4609 N.pl3   1  UNL1       -0.3059
     22 C         139.3807  137.8968  163.8069 C.3     1  UNL1        0.0909
     23 C         139.3482  137.7629  165.3006 C.3     1  UNL1        0.0244
     24 C         138.9806  139.0979  165.8777 C.3     1  UNL1        0.0344
     25 C         138.7859  140.0567  164.7407 C.3     1  UNL1        0.0921
     26 C         138.8335  139.4177  167.3358 C.3     1  UNL1        0.0406
     27 N         137.6435  138.5679  167.6701 N.3     1  UNL1       -0.3231
     28 C         139.0996  140.0327  168.6777 C.3     1  UNL1        0.0156
     29 C         139.9724  140.3786  167.5078 C.3     1  UNL1        0.0156
     30 H         137.3351  138.0710  166.8344 H       1  UNL1        0.1188
     31 H         136.8872  139.1611  168.0115 H       1  UNL1        0.1188
     32 C         141.6896  143.2438  160.8620 C.3     1  UNL1        0.0885
     33 C         143.0636  143.2216  161.4632 C.3     1  UNL1        0.0246
     34 C         142.0460  144.2081  161.9543 C.3     1  UNL1        0.0246
@<TRIPOS>BOND
     1     1     2    1
     2     2     3   ar
     3     3    21    1
     4    21    22    1
     5    22    23    1
     6    23    24    1
     7    24    26    1
     8    26    27    1
     9    26    28    1
    10    28    29    1
    11    24    25    1
    12     3     4   ar
    13     4     5    1
    14     4     6   ar
    15     6     7   ar
    16     7     8   ar
    17     8    14    1
    18    14    15   ar
    19    15    16   ar
    20    16    17   ar
    21    17    18    2
    22    17    19   ar
    23     8     9   ar
    24     9    10   ar
    25    10    11    2
    26    10    12   ar
    27    12    32    1
    28    32    33    1
    29    33    34    1
    30    12    13   ar
    31    13     2   ar
    32    25    21    1
    33    13     7   ar
    34    29    26    1
    35    19    14   ar
    36    34    32    1
    37    27    30    1
    38    27    31    1
    39    15    20    1
@<TRIPOS>MOLECULE
*****
 34 39 0 0 0
SMALL
GASTEIGER

@<TRIPOS>ATOM
      1 C         142.0650  141.9028  163.5081 C.3     1  UNL1        0.0339
      2 C         141.7482  140.7197  162.6422 C.ar    1  UNL1        0.0095
      3 C         140.9201  139.5931  163.1853 C.ar    1  UNL1        0.0730
      4 C         140.6033  138.4099  162.3194 C.ar    1  UNL1        0.1531
      5 F         139.7751  137.2833  162.8626 F       1  UNL1       -0.2029
      6 C         141.1147  138.3533  160.9105 C.ar    1  UNL1        0.0324
      7 C         141.9429  139.4799  160.3674 C.ar    1  UNL1        0.0210
      8 C         142.4544  139.4233  158.9584 C.ar    1  UNL1        0.0428
      9 C         143.2826  140.5498  158.4153 C.ar    1  UNL1        0.0639
     10 C         143.5993  141.7330  159.2812 C.ar    1  UNL1        0.2610
     11 O         144.4275  142.8596  158.7381 O.2     1  UNL1       -0.2670
     12 N         143.0879  141.7896  160.6902 N.ar    1  UNL1       -0.2976
     13 C         142.2597  140.6630  161.2333 C.ar    1  UNL1        0.0598
     14 C         142.1376  138.2401  158.0925 C.ar    1  UNL1        0.1736
     15 N         140.8464  137.9977  157.3686 N.ar    1  UNL1       -0.1997
     16 O         140.9672  136.6994  156.6272 O.2     1  UNL1       -0.3503
     17 C         142.3332  136.1393  156.8928 C.ar    1  UNL1        0.2946
     18 S         142.8798  134.8529  156.3485 S.2     1  UNL1        0.0135
     19 N         143.0565  137.0915  157.7984 N.ar    1  UNL1       -0.1835
     20 H         140.0580  138.5873  157.3784 H       1  UNL1        0.2091
     21 N         140.4086  139.6497  164.5943 N.pl3   1  UNL1       -0.3059
     22 C         138.9687  139.6033  165.0121 C.3     1  UNL1        0.0909
     23 C         138.9173  139.6875  166.5089 C.3     1  UNL1        0.0244
     24 C         140.3256  139.7860  167.0161 C.3     1  UNL1        0.0344
     25 C         141.2472  139.7626  165.8329 C.3     1  UNL1        0.0921
     26 C         140.7395  139.8897  168.4542 C.3     1  UNL1        0.0406
     27 N         142.2025  139.5845  168.3267 N.3     1  UNL1       -0.3231
     28 C         140.6453  140.0993  169.9364 C.3     1  UNL1        0.0156
     29 C         139.4202  140.2308  169.0810 C.3     1  UNL1        0.0156
     30 H         142.4301  139.4134  167.3472 H       1  UNL1        0.1188
     31 H         142.4262  138.7557  168.8776 H       1  UNL1        0.1188
     32 C         143.4046  142.9728  161.5560 C.3     1  UNL1        0.0885
     33 C         143.0106  144.2960  162.1424 C.3     1  UNL1        0.0246
     34 C         144.3472  143.6989  162.4694 C.3     1  UNL1        0.0246
@<TRIPOS>BOND
     1     1     2    1
     2     2     3   ar
     3     3    21    1
     4    21    22    1
     5    22    23    1
     6    23    24    1
     7    24    26    1
     8    26    27    1
     9    26    28    1
    10    28    29    1
    11    24    25    1
    12     3     4   ar
    13     4     5    1
    14     4     6   ar
    15     6     7   ar
    16     7     8   ar
    17     8    14    1
    18    14    15   ar
    19    15    16   ar
    20    16    17   ar
    21    17    18    2
    22    17    19   ar
    23     8     9   ar
    24     9    10   ar
    25    10    11    2
    26    10    12   ar
    27    12    32    1
    28    32    33    1
    29    33    34    1
    30    12    13   ar
    31    13     2   ar
    32    25    21    1
    33    13     7   ar
    34    29    26    1
    35    19    14   ar
    36    34    32    1
    37    27    30    1
    38    27    31    1
    39    15    20    1
