@<TRIPOS>MOLECULE
*****
 19 22 0 0 0
SMALL
GASTEIGER

@<TRIPOS>ATOM
      1 CL        137.2945  139.8836  160.4671 Cl      1  UNL1       -0.0806
      2 C         137.8366  139.4255  161.7886 C.ar    1  UNL1        0.0785
      3 C         138.2686  138.0005  161.9688 C.ar    1  UNL1        0.1135
      4 N         138.8107  137.5424  163.2902 N.ar    1  UNL1       -0.2076
      5 C         138.9208  138.5094  164.4316 C.ar    1  UNL1        0.2507
      6 O         139.4124  138.3486  165.8396 O.2     1  UNL1       -0.4056
      7 C         139.2842  139.6742  166.5296 C.ar    1  UNL1        0.2936
      8 N         138.7134  140.6544  165.5481 N.ar    1  UNL1       -0.1929
      9 C         138.4888  139.9345  164.2514 C.ar    1  UNL1        0.1400
     10 C         137.9467  140.3925  162.9300 C.ar    1  UNL1        0.0370
     11 N         139.8365  140.1052  168.6152 N.pl3   1  UNL1       -0.2637
     12 C         139.1554  140.2266  169.1789 C.3     1  UNL1        0.1123
     13 C         139.1288  140.3911  169.9683 C.3     1  UNL1        0.0939
     14 N         139.9106  140.5844  170.9188 N.3     1  UNL1       -0.2711
     15 C         140.1991  140.4257  170.1643 C.3     1  UNL1        0.0738
     16 C         140.7516  140.1701  168.9521 C.3     1  UNL1        0.0372
     17 C         141.1323  140.0192  168.2379 C.3     1  UNL1        0.0798
     18 C         142.0133  140.2617  169.4274 C.3     1  UNL1        0.0372
     19 C         141.4024  140.5443  170.7679 C.3     1  UNL1        0.0738
@<TRIPOS>BOND
     1     1     2    1
     2     2     3   ar
     3     3     4   ar
     4     4     5   ar
     5     5     6   ar
     6     6     7   ar
     7     7    11    1
     8    11    12    1
     9    12    13    1
    10    13    14    1
    11    14    15    1
    12    15    16    1
    13    16    17    1
    14    17    18    1
    15    18    19    1
    16     7     8   ar
    17     8     9   ar
    18     9    10   ar
    19    10     2   ar
    20     9     5   ar
    21    17    11    1
    22    19    14    1
@<TRIPOS>MOLECULE
*****
 19 22 0 0 0
SMALL
GASTEIGER

@<TRIPOS>ATOM
      1 CL        137.7229  138.7427  161.4862 Cl      1  UNL1       -0.0806
      2 C         138.4353  138.8583  162.8012 C.ar    1  UNL1        0.0785
      3 C         138.9999  137.6339  163.4584 C.ar    1  UNL1        0.1135
      4 N         139.7123  137.7494  164.7734 N.ar    1  UNL1       -0.2076
      5 C         139.8602  139.0893  165.4311 C.ar    1  UNL1        0.2507
      6 O         140.5070  139.5102  166.7173 O.2     1  UNL1       -0.4056
      7 C         140.3422  140.9948  166.8551 C.ar    1  UNL1        0.2936
      8 N         139.5935  141.4914  165.6539 N.ar    1  UNL1       -0.1929
      9 C         139.2956  140.3138  164.7739 C.ar    1  UNL1        0.1400
     10 C         138.5832  140.1982  163.4589 C.ar    1  UNL1        0.0370
     11 N         141.0707  142.2273  168.5255 N.pl3   1  UNL1       -0.2637
     12 C         140.4710  142.7787  168.8901 C.3     1  UNL1        0.1123
     13 C         140.5208  143.3071  169.4977 C.3     1  UNL1        0.0939
     14 N         141.3612  143.7296  170.3146 N.3     1  UNL1       -0.2711
     15 C         141.5661  143.1553  169.7613 C.3     1  UNL1        0.0738
     16 C         141.9805  142.2094  168.8819 C.3     1  UNL1        0.0372
     17 C         142.2776  141.6376  168.3695 C.3     1  UNL1        0.0798
     18 C         143.2360  142.1918  169.3815 C.3     1  UNL1        0.0372
     19 C         142.7778  143.2378  170.3541 C.3     1  UNL1        0.0738
@<TRIPOS>BOND
     1     1     2    1
     2     2     3   ar
     3     3     4   ar
     4     4     5   ar
     5     5     6   ar
     6     6     7   ar
     7     7    11    1
     8    11    12    1
     9    12    13    1
    10    13    14    1
    11    14    15    1
    12    15    16    1
    13    16    17    1
    14    17    18    1
    15    18    19    1
    16     7     8   ar
    17     8     9   ar
    18     9    10   ar
    19    10     2   ar
    20     9     5   ar
    21    17    11    1
    22    19    14    1
@<TRIPOS>MOLECULE
*****
 19 22 0 0 0
SMALL
GASTEIGER

@<TRIPOS>ATOM
      1 CL        137.7570  138.0256  161.9162 Cl      1  UNL1       -0.0806
      2 C         138.4216  139.1469  162.6583 C.ar    1  UNL1        0.0785
      3 C         138.8582  140.3787  161.9220 C.ar    1  UNL1        0.1135
      4 N         139.5228  141.5001  162.6641 N.ar    1  UNL1       -0.2076
      5 C         139.7510  141.3897  164.1425 C.ar    1  UNL1        0.2507
      6 O         140.3761  142.3255  165.1343 O.2     1  UNL1       -0.4056
      7 C         140.3259  141.6720  166.4835 C.ar    1  UNL1        0.2936
      8 N         139.6698  140.3324  166.3257 N.ar    1  UNL1       -0.1929
      9 C         139.3145  140.1580  164.8788 C.ar    1  UNL1        0.1400
     10 C         138.6498  139.0366  164.1367 C.ar    1  UNL1        0.0370
     11 N         141.0820  142.5281  168.3639 N.pl3   1  UNL1       -0.2637
     12 C         140.4990  143.0201  168.8273 C.3     1  UNL1        0.1123
     13 C         140.5618  143.4180  169.5263 C.3     1  UNL1        0.0939
     14 N         141.4089  143.6419  170.4119 N.3     1  UNL1       -0.2711
     15 C         141.5984  143.1790  169.7580 C.3     1  UNL1        0.0738
     16 C         141.9870  142.4074  168.7123 C.3     1  UNL1        0.0372
     17 C         142.2683  141.9355  168.0992 C.3     1  UNL1        0.0798
     18 C         143.2361  142.2463  169.2022 C.3     1  UNL1        0.0372
     19 C         142.8064  143.0995  170.3586 C.3     1  UNL1        0.0738
@<TRIPOS>BOND
     1     1     2    1
     2     2     3   ar
     3     3     4   ar
     4     4     5   ar
     5     5     6   ar
     6     6     7   ar
     7     7    11    1
     8    11    12    1
     9    12    13    1
    10    13    14    1
    11    14    15    1
    12    15    16    1
    13    16    17    1
    14    17    18    1
    15    18    19    1
    16     7     8   ar
    17     8     9   ar
    18     9    10   ar
    19    10     2   ar
    20     9     5   ar
    21    17    11    1
    22    19    14    1
@<TRIPOS>MOLECULE
*****
 19 22 0 0 0
SMALL
GASTEIGER

@<TRIPOS>ATOM
      1 CL        143.9654  137.7557  161.4503 Cl      1  UNL1       -0.0806
      2 C         142.8765  138.1717  162.3943 C.ar    1  UNL1        0.0785
      3 C         141.4388  137.9798  162.0121 C.ar    1  UNL1        0.1135
      4 N         140.3498  138.3958  162.9561 N.ar    1  UNL1       -0.2076
      5 C         140.6985  139.0036  164.2823 C.ar    1  UNL1        0.2507
      6 O         139.8478  139.5065  165.4107 O.2     1  UNL1       -0.4056
      7 C         140.7597  140.0092  166.4904 C.ar    1  UNL1        0.2936
      8 N         142.1741  139.8170  166.0292 N.ar    1  UNL1       -0.1929
      9 C         142.1362  139.1955  164.6645 C.ar    1  UNL1        0.1400
     10 C         143.2252  138.7795  163.7205 C.ar    1  UNL1        0.0370
     11 N         140.1329  140.8761  168.4128 N.pl3   1  UNL1       -0.2637
     12 C         139.6908  140.3265  168.9596 C.3     1  UNL1        0.1123
     13 C         139.3762  140.4322  169.6949 C.3     1  UNL1        0.0939
     14 N         139.2645  141.3278  170.5538 N.3     1  UNL1       -0.2711
     15 C         139.6516  141.4752  169.8423 C.3     1  UNL1        0.0738
     16 C         140.3026  141.7958  168.6964 C.3     1  UNL1        0.0372
     17 C         140.7044  142.0369  168.0194 C.3     1  UNL1        0.0798
     18 C         140.5326  143.0657  169.0973 C.3     1  UNL1        0.0372
     19 C         139.8127  142.7111  170.3645 C.3     1  UNL1        0.0738
@<TRIPOS>BOND
     1     1     2    1
     2     2     3   ar
     3     3     4   ar
     4     4     5   ar
     5     5     6   ar
     6     6     7   ar
     7     7    11    1
     8    11    12    1
     9    12    13    1
    10    13    14    1
    11    14    15    1
    12    15    16    1
    13    16    17    1
    14    17    18    1
    15    18    19    1
    16     7     8   ar
    17     8     9   ar
    18     9    10   ar
    19    10     2   ar
    20     9     5   ar
    21    17    11    1
    22    19    14    1
@<TRIPOS>MOLECULE
*****
 19 22 0 0 0
SMALL
GASTEIGER

@<TRIPOS>ATOM
      1 CL        142.6053  138.6182  169.9765 Cl      1  UNL1       -0.0806
      2 C         141.9488  139.8326  169.3898 C.ar    1  UNL1        0.0785
      3 C         141.3843  140.8896  170.2919 C.ar    1  UNL1        0.1135
      4 N         140.7277  142.1040  169.7052 N.ar    1  UNL1       -0.2076
      5 C         140.6357  142.2613  168.2163 C.ar    1  UNL1        0.2507
      6 O         140.0503  143.3412  167.3554 O.2     1  UNL1       -0.4056
      7 C         140.2529  142.9514  165.9211 C.ar    1  UNL1        0.2936
      8 N         140.9637  141.6308  165.8956 N.ar    1  UNL1       -0.1929
      9 C         141.2002  141.2043  167.3142 C.ar    1  UNL1        0.1400
     10 C         141.8567  139.9899  167.9009 C.ar    1  UNL1        0.0370
     11 N         139.6191  144.1130  164.1635 N.pl3   1  UNL1       -0.2637
     12 C         138.7559  144.0471  163.9465 C.3     1  UNL1        0.1123
     13 C         138.3197  144.3789  163.3546 C.3     1  UNL1        0.0939
     14 N         138.4724  145.1508  162.3887 N.3     1  UNL1       -0.2711
     15 C         139.1086  144.9540  162.8728 C.3     1  UNL1        0.0738
     16 C         140.2046  144.6785  163.6228 C.3     1  UNL1        0.0372
     17 C         140.8965  144.5414  164.0475 C.3     1  UNL1        0.0798
     18 C         141.0065  145.4629  162.8691 C.3     1  UNL1        0.0372
     19 C         139.7944  145.7676  162.0397 C.3     1  UNL1        0.0738
@<TRIPOS>BOND
     1     1     2    1
     2     2     3   ar
     3     3     4   ar
     4     4     5   ar
     5     5     6   ar
     6     6     7   ar
     7     7    11    1
     8    11    12    1
     9    12    13    1
    10    13    14    1
    11    14    15    1
    12    15    16    1
    13    16    17    1
    14    17    18    1
    15    18    19    1
    16     7     8   ar
    17     8     9   ar
    18     9    10   ar
    19    10     2   ar
    20     9     5   ar
    21    17    11    1
    22    19    14    1
@<TRIPOS>MOLECULE
*****
 19 22 0 0 0
SMALL
GASTEIGER

@<TRIPOS>ATOM
      1 CL        142.2380  141.9129  171.0304 Cl      1  UNL1       -0.0806
      2 C         141.2663  141.2359  170.1099 C.ar    1  UNL1        0.0785
      3 C         140.0528  140.5547  170.6696 C.ar    1  UNL1        0.1135
      4 N         139.0811  139.8777  169.7490 N.ar    1  UNL1       -0.2076
      5 C         139.3229  139.8819  168.2687 C.ar    1  UNL1        0.2507
      6 O         138.5472  139.3020  167.1233 O.2     1  UNL1       -0.4056
      7 C         139.2812  139.6248  165.8556 C.ar    1  UNL1        0.2936
      8 N         140.5107  140.4042  166.2175 N.ar    1  UNL1       -0.1929
      9 C         140.5364  140.5631  167.7089 C.ar    1  UNL1        0.1400
     10 C         141.5081  141.2401  168.6295 C.ar    1  UNL1        0.0370
     11 N         138.6632  139.0551  163.8225 N.pl3   1  UNL1       -0.2637
     12 C         138.8209  138.2071  163.5931 C.3     1  UNL1        0.1123
     13 C         138.6791  137.7945  162.9145 C.3     1  UNL1        0.0939
     14 N         138.1901  137.9778  161.7834 N.3     1  UNL1       -0.2711
     15 C         138.2227  138.5921  162.3306 C.3     1  UNL1        0.0738
     16 C         138.2403  139.6531  163.1754 C.3     1  UNL1        0.0372
     17 C         138.2291  140.3245  163.6519 C.3     1  UNL1        0.0798
     18 C         137.6553  140.4725  162.2740 C.3     1  UNL1        0.0372
     19 C         137.6357  139.2991  161.3398 C.3     1  UNL1        0.0738
@<TRIPOS>BOND
     1     1     2    1
     2     2     3   ar
     3     3     4   ar
     4     4     5   ar
     5     5     6   ar
     6     6     7   ar
     7     7    11    1
     8    11    12    1
     9    12    13    1
    10    13    14    1
    11    14    15    1
    12    15    16    1
    13    16    17    1
    14    17    18    1
    15    18    19    1
    16     7     8   ar
    17     8     9   ar
    18     9    10   ar
    19    10     2   ar
    20     9     5   ar
    21    17    11    1
    22    19    14    1
@<TRIPOS>MOLECULE
*****
 19 22 0 0 0
SMALL
GASTEIGER

@<TRIPOS>ATOM
      1 CL        138.1393  139.9978  170.2307 Cl      1  UNL1       -0.0806
      2 C         139.3792  140.5712  169.6112 C.ar    1  UNL1        0.0785
      3 C         140.3000  141.4266  170.4299 C.ar    1  UNL1        0.1135
      4 N         141.5399  142.0000  169.8105 N.ar    1  UNL1       -0.2076
      5 C         141.8591  141.7179  168.3722 C.ar    1  UNL1        0.2507
      6 O         142.9997  142.1422  167.4953 O.2     1  UNL1       -0.4056
      7 C         142.7839  141.5490  166.1346 C.ar    1  UNL1        0.2936
      8 N         141.5099  140.7581  166.1705 N.ar    1  UNL1       -0.1929
      9 C         140.9384  140.8625  167.5535 C.ar    1  UNL1        0.1400
     10 C         139.6984  140.2891  168.1730 C.ar    1  UNL1        0.0370
     11 N         144.1042  141.7957  164.3921 N.pl3   1  UNL1       -0.2637
     12 C         144.7887  141.2253  164.3412 C.3     1  UNL1        0.1123
     13 C         145.3814  141.1380  163.8009 C.3     1  UNL1        0.0939
     14 N         145.7740  141.6570  162.7385 N.3     1  UNL1       -0.2711
     15 C         145.1036  141.9424  163.1219 C.3     1  UNL1        0.0738
     16 C         143.9917  142.4691  163.6929 C.3     1  UNL1        0.0372
     17 C         143.3147  142.8218  164.0013 C.3     1  UNL1        0.0798
     18 C         143.8444  143.3967  162.7212 C.3     1  UNL1        0.0372
     19 C         145.0741  142.8143  162.0898 C.3     1  UNL1        0.0738
@<TRIPOS>BOND
     1     1     2    1
     2     2     3   ar
     3     3     4   ar
     4     4     5   ar
     5     5     6   ar
     6     6     7   ar
     7     7    11    1
     8    11    12    1
     9    12    13    1
    10    13    14    1
    11    14    15    1
    12    15    16    1
    13    16    17    1
    14    17    18    1
    15    18    19    1
    16     7     8   ar
    17     8     9   ar
    18     9    10   ar
    19    10     2   ar
    20     9     5   ar
    21    17    11    1
    22    19    14    1
@<TRIPOS>MOLECULE
*****
 19 22 0 0 0
SMALL
GASTEIGER

@<TRIPOS>ATOM
      1 CL        141.1898  145.3244  160.0763 Cl      1  UNL1       -0.0806
      2 C         140.9158  144.8895  161.4854 C.ar    1  UNL1        0.0785
      3 C         139.5815  145.1698  162.1108 C.ar    1  UNL1        0.1135
      4 N         139.3076  144.7349  163.5200 N.ar    1  UNL1       -0.2076
      5 C         140.3679  144.0197  164.3038 C.ar    1  UNL1        0.2507
      6 O         140.3873  143.4749  165.7012 O.2     1  UNL1       -0.4056
      7 C         141.7337  142.8578  165.9394 C.ar    1  UNL1        0.2936
      8 N         142.5463  143.0214  164.6893 N.ar    1  UNL1       -0.1929
      9 C         141.7021  143.7395  163.6784 C.ar    1  UNL1        0.1400
     10 C         141.9761  144.1744  162.2692 C.ar    1  UNL1        0.0370
     11 N         142.3995  141.8840  167.7964 N.pl3   1  UNL1       -0.2637
     12 C         142.9660  142.3558  168.2995 C.3     1  UNL1        0.1123
     13 C         143.3277  142.1958  169.0026 C.3     1  UNL1        0.0939
     14 N         143.3845  141.2827  169.8483 N.3     1  UNL1       -0.2711
     15 C         142.9163  141.2028  169.1759 C.3     1  UNL1        0.0738
     16 C         142.1228  140.9957  168.0955 C.3     1  UNL1        0.0372
     17 C         141.6295  140.8248  167.4588 C.3     1  UNL1        0.0798
     18 C         141.7459  139.7684  168.5172 C.3     1  UNL1        0.0372
     19 C         142.6234  139.9974  169.7120 C.3     1  UNL1        0.0738
@<TRIPOS>BOND
     1     1     2    1
     2     2     3   ar
     3     3     4   ar
     4     4     5   ar
     5     5     6   ar
     6     6     7   ar
     7     7    11    1
     8    11    12    1
     9    12    13    1
    10    13    14    1
    11    14    15    1
    12    15    16    1
    13    16    17    1
    14    17    18    1
    15    18    19    1
    16     7     8   ar
    17     8     9   ar
    18     9    10   ar
    19    10     2   ar
    20     9     5   ar
    21    17    11    1
    22    19    14    1
@<TRIPOS>MOLECULE
*****
 19 22 0 0 0
SMALL
GASTEIGER

@<TRIPOS>ATOM
      1 CL        139.5846  138.2866  160.2090 Cl      1  UNL1       -0.0806
      2 C         140.5309  138.4586  161.3600 C.ar    1  UNL1        0.0785
      3 C         141.9083  137.8686  161.2931 C.ar    1  UNL1        0.1135
      4 N         142.8546  138.0406  162.4442 N.ar    1  UNL1       -0.2076
      5 C         142.4234  138.8025  163.6622 C.ar    1  UNL1        0.2507
      6 O         143.1319  139.1330  164.9423 O.2     1  UNL1       -0.4056
      7 C         142.1923  139.9273  165.8004 C.ar    1  UNL1        0.2936
      8 N         140.9031  140.0877  165.0506 N.ar    1  UNL1       -0.1929
      9 C         141.0460  139.3925  163.7291 C.ar    1  UNL1        0.1400
     10 C         140.0997  139.2206  162.5780 C.ar    1  UNL1        0.0370
     11 N         142.6285  140.7182  167.8065 N.pl3   1  UNL1       -0.2637
     12 C         142.8725  141.5760  167.8399 C.3     1  UNL1        0.1123
     13 C         143.0734  142.0581  168.4548 C.3     1  UNL1        0.0939
     14 N         143.1918  142.0074  169.6940 N.3     1  UNL1       -0.2711
     15 C         142.9598  141.3425  169.2675 C.3     1  UNL1        0.0738
     16 C         142.5737  140.2055  168.6367 C.3     1  UNL1        0.0372
     17 C         142.3378  139.4927  168.2989 C.3     1  UNL1        0.0798
     18 C         142.5006  139.5048  169.7900 C.3     1  UNL1        0.0372
     19 C         142.9277  140.7622  170.4875 C.3     1  UNL1        0.0738
@<TRIPOS>BOND
     1     1     2    1
     2     2     3   ar
     3     3     4   ar
     4     4     5   ar
     5     5     6   ar
     6     6     7   ar
     7     7    11    1
     8    11    12    1
     9    12    13    1
    10    13    14    1
    11    14    15    1
    12    15    16    1
    13    16    17    1
    14    17    18    1
    15    18    19    1
    16     7     8   ar
    17     8     9   ar
    18     9    10   ar
    19    10     2   ar
    20     9     5   ar
    21    17    11    1
    22    19    14    1
