@<TRIPOS>MOLECULE
*****
 23 25 0 0 0
SMALL
GASTEIGER

@<TRIPOS>ATOM
      1 N         142.9285  143.4746  158.6280 N.3     1  UNL1       -0.2711
      2 C         142.0318  144.6468  158.3599 C.3     1  UNL1        0.0939
      3 C         141.1195  145.1550  159.4366 C.3     1  UNL1        0.1123
      4 N         141.1038  144.4910  160.7815 N.am    1  UNL1       -0.2612
      5 C         140.1915  144.9992  161.8583 C.2     1  UNL1        0.3075
      6 O         139.2948  146.1714  161.5901 O.2     1  UNL1       -0.2523
      7 N         140.1758  144.3352  163.2032 N.am    1  UNL1       -0.2596
      8 C         141.0725  143.1630  163.4714 C.3     1  UNL1        0.1211
      9 C         141.0568  142.4990  164.8163 C.2     1  UNL1       -0.0088
     10 C         140.1445  143.0072  165.8931 C.2     1  UNL1       -0.0231
     11 C         139.2478  144.1794  165.6249 C.3     1  UNL1        0.0476
     12 C         139.2635  144.8434  164.2799 C.3     1  UNL1        0.0999
     13 C         142.0005  143.3188  161.0497 C.3     1  UNL1        0.1123
     14 C         142.9128  142.8106  159.9730 C.3     1  UNL1        0.0939
     15 C         140.1289  142.3432  167.2381 C.ar    1  UNL1       -0.0042
     16 C         139.8717  140.8692  167.3438 C.ar    1  UNL1       -0.0003
     17 C         139.8560  140.2052  168.6887 C.ar    1  UNL1       -0.0000
     18 C         140.0976  141.0152  169.9279 C.ar    1  UNL1       -0.0000
     19 C         140.3548  142.4892  169.8221 C.ar    1  UNL1       -0.0000
     20 C         140.3704  143.1532  168.4772 C.ar    1  UNL1       -0.0003
     21 C         143.3941  142.9843  156.1195 C.3     1  UNL1        0.0173
     22 C         143.8408  142.9664  157.5513 C.3     1  UNL1        0.0577
     23 C         145.1999  142.4403  157.9063 C.3     1  UNL1        0.0173
@<TRIPOS>BOND
     1    21    22    1
     2    22    23    1
     3    22     1    1
     4     1     2    1
     5     2     3    1
     6     3     4    1
     7     4     5   am
     8     5     6    2
     9     5     7   am
    10     7     8    1
    11     8     9    1
    12     9    10    2
    13    10    15    1
    14    15    16   ar
    15    16    17   ar
    16    17    18   ar
    17    18    19   ar
    18    19    20   ar
    19    10    11    1
    20    11    12    1
    21     4    13    1
    22    13    14    1
    23    14     1    1
    24    12     7    1
    25    20    15   ar
@<TRIPOS>MOLECULE
*****
 23 25 0 0 0
SMALL
GASTEIGER

@<TRIPOS>ATOM
      1 N         140.3405  144.7272  158.6968 N.3     1  UNL1       -0.2711
      2 C         139.3614  143.6296  158.4027 C.3     1  UNL1        0.0939
      3 C         138.9340  142.6935  159.4941 C.3     1  UNL1        0.1123
      4 N         139.4856  142.8551  160.8796 N.am    1  UNL1       -0.2612
      5 C         139.0582  141.9191  161.9709 C.2     1  UNL1        0.3075
      6 O         138.0791  140.8214  161.6769 O.2     1  UNL1       -0.2523
      7 N         139.6098  142.0807  163.3564 N.am    1  UNL1       -0.2596
      8 C         140.5889  143.1784  163.6506 C.3     1  UNL1        0.1211
      9 C         141.1405  143.3401  165.0360 C.2     1  UNL1       -0.0088
     10 C         140.7130  142.4040  166.1274 C.2     1  UNL1       -0.0231
     11 C         139.7340  141.3063  165.8333 C.3     1  UNL1        0.0476
     12 C         139.1823  141.1447  164.4478 C.3     1  UNL1        0.0999
     13 C         140.4647  143.9528  161.1736 C.3     1  UNL1        0.1123
     14 C         140.8921  144.8888  160.0823 C.3     1  UNL1        0.0939
     15 C         141.2647  142.5657  167.5129 C.ar    1  UNL1       -0.0042
     16 C         142.6752  142.1518  167.8116 C.ar    1  UNL1       -0.0003
     17 C         143.2267  142.3135  169.1971 C.ar    1  UNL1       -0.0000
     18 C         142.3679  142.8891  170.2839 C.ar    1  UNL1       -0.0000
     19 C         140.9574  143.3029  169.9852 C.ar    1  UNL1       -0.0000
     20 C         140.4058  143.1412  168.5997 C.ar    1  UNL1       -0.0003
     21 C         142.2266  145.9078  157.3556 C.3     1  UNL1        0.0173
     22 C         140.7679  145.6633  157.6054 C.3     1  UNL1        0.0577
     23 C         139.7367  146.3548  156.7639 C.3     1  UNL1        0.0173
@<TRIPOS>BOND
     1    21    22    1
     2    22    23    1
     3    22     1    1
     4     1     2    1
     5     2     3    1
     6     3     4    1
     7     4     5   am
     8     5     6    2
     9     5     7   am
    10     7     8    1
    11     8     9    1
    12     9    10    2
    13    10    15    1
    14    15    16   ar
    15    16    17   ar
    16    17    18   ar
    17    18    19   ar
    18    19    20   ar
    19    10    11    1
    20    11    12    1
    21     4    13    1
    22    13    14    1
    23    14     1    1
    24    12     7    1
    25    20    15   ar
@<TRIPOS>MOLECULE
*****
 23 25 0 0 0
SMALL
GASTEIGER

@<TRIPOS>ATOM
      1 N         138.5301  141.9483  159.0338 N.3     1  UNL1       -0.2711
      2 C         138.1184  140.5156  158.8670 C.3     1  UNL1        0.0939
      3 C         138.0957  139.5987  160.0539 C.3     1  UNL1        0.1123
      4 N         138.4846  140.1145  161.4077 N.am    1  UNL1       -0.2612
      5 C         138.4618  139.1976  162.5946 C.2     1  UNL1        0.3075
      6 O         138.0502  137.7649  162.4278 O.2     1  UNL1       -0.2523
      7 N         138.8508  139.7134  163.9483 N.am    1  UNL1       -0.2596
      8 C         139.2625  141.1462  164.1152 C.3     1  UNL1        0.1211
      9 C         139.6514  141.6620  165.4689 C.2     1  UNL1       -0.0088
     10 C         139.6286  140.7451  166.6558 C.2     1  UNL1       -0.0231
     11 C         139.2170  139.3124  166.4890 C.3     1  UNL1        0.0476
     12 C         138.8280  138.7965  165.1352 C.3     1  UNL1        0.0999
     13 C         138.8962  141.5472  161.5745 C.3     1  UNL1        0.1123
     14 C         138.9190  142.4641  160.3875 C.3     1  UNL1        0.0939
     15 C         140.0176  141.2610  168.0096 C.ar    1  UNL1       -0.0042
     16 C         139.9181  140.3669  169.2099 C.ar    1  UNL1       -0.0003
     17 C         140.3070  140.8828  170.5636 C.ar    1  UNL1       -0.0000
     18 C         140.7955  142.2928  170.7170 C.ar    1  UNL1       -0.0000
     19 C         140.8949  143.1868  169.5167 C.ar    1  UNL1       -0.0000
     20 C         140.5060  142.6709  168.1630 C.ar    1  UNL1       -0.0003
     21 C         139.6487  143.8793  157.7034 C.3     1  UNL1        0.0173
     22 C         138.5528  142.8652  157.8469 C.3     1  UNL1        0.0577
     23 C         137.4797  142.7679  156.8034 C.3     1  UNL1        0.0173
@<TRIPOS>BOND
     1    21    22    1
     2    22    23    1
     3    22     1    1
     4     1     2    1
     5     2     3    1
     6     3     4    1
     7     4     5   am
     8     5     6    2
     9     5     7   am
    10     7     8    1
    11     8     9    1
    12     9    10    2
    13    10    15    1
    14    15    16   ar
    15    16    17   ar
    16    17    18   ar
    17    18    19   ar
    18    19    20   ar
    19    10    11    1
    20    11    12    1
    21     4    13    1
    22    13    14    1
    23    14     1    1
    24    12     7    1
    25    20    15   ar
@<TRIPOS>MOLECULE
*****
 23 25 0 0 0
SMALL
GASTEIGER

@<TRIPOS>ATOM
      1 N         140.3755  139.2195  158.9616 N.3     1  UNL1       -0.2711
      2 C         139.2395  140.1248  158.5878 C.3     1  UNL1        0.0939
      3 C         138.7197  141.1242  159.5782 C.3     1  UNL1        0.1123
      4 N         139.3360  141.2183  160.9425 N.am    1  UNL1       -0.2612
      5 C         138.8162  142.2176  161.9330 C.2     1  UNL1        0.3075
      6 O         137.6801  143.1229  161.5592 O.2     1  UNL1       -0.2523
      7 N         139.4325  142.3117  163.2973 N.am    1  UNL1       -0.2596
      8 C         140.5686  141.4064  163.6711 C.3     1  UNL1        0.1211
      9 C         141.1849  141.5005  165.0354 C.2     1  UNL1       -0.0088
     10 C         140.6651  142.4999  166.0259 C.2     1  UNL1       -0.0231
     11 C         139.5290  143.4052  165.6521 C.3     1  UNL1        0.0476
     12 C         138.9127  143.3111  164.2877 C.3     1  UNL1        0.0999
     13 C         140.4720  140.3130  161.3163 C.3     1  UNL1        0.1123
     14 C         140.9918  139.3136  160.3258 C.3     1  UNL1        0.0939
     15 C         141.2815  142.5940  167.3902 C.ar    1  UNL1       -0.0042
     16 C         142.7094  142.1843  167.5980 C.ar    1  UNL1       -0.0003
     17 C         143.3256  142.2784  168.9623 C.ar    1  UNL1       -0.0000
     18 C         142.5140  142.7822  170.1188 C.ar    1  UNL1       -0.0000
     19 C         141.0861  143.1919  169.9110 C.ar    1  UNL1       -0.0000
     20 C         140.4698  143.0978  168.5467 C.ar    1  UNL1       -0.0003
     21 C         142.3488  137.8496  157.9718 C.3     1  UNL1        0.0173
     22 C         140.8953  138.2201  157.9711 C.3     1  UNL1        0.0577
     23 C         139.9616  137.5912  156.9798 C.3     1  UNL1        0.0173
@<TRIPOS>BOND
     1    21    22    1
     2    22    23    1
     3    22     1    1
     4     1     2    1
     5     2     3    1
     6     3     4    1
     7     4     5   am
     8     5     6    2
     9     5     7   am
    10     7     8    1
    11     8     9    1
    12     9    10    2
    13    10    15    1
    14    15    16   ar
    15    16    17   ar
    16    17    18   ar
    17    18    19   ar
    18    19    20   ar
    19    10    11    1
    20    11    12    1
    21     4    13    1
    22    13    14    1
    23    14     1    1
    24    12     7    1
    25    20    15   ar
@<TRIPOS>MOLECULE
*****
 23 25 0 0 0
SMALL
GASTEIGER

@<TRIPOS>ATOM
      1 N         143.6326  140.1165  158.8436 N.3     1  UNL1       -0.2711
      2 C         142.9751  138.7685  158.8239 C.3     1  UNL1        0.0939
      3 C         142.3325  138.2292  160.0673 C.3     1  UNL1        0.1123
      4 N         142.3473  139.0379  161.3305 N.am    1  UNL1       -0.2612
      5 C         141.7046  138.4986  162.5739 C.2     1  UNL1        0.3075
      6 O         141.0472  137.1506  162.5542 O.2     1  UNL1       -0.2523
      7 N         141.7194  139.3074  163.8371 N.am    1  UNL1       -0.2596
      8 C         142.3769  140.6555  163.8569 C.3     1  UNL1        0.1211
      9 C         142.3917  141.4643  165.1201 C.2     1  UNL1       -0.0088
     10 C         141.7491  140.9249  166.3635 C.2     1  UNL1       -0.0231
     11 C         141.0916  139.5769  166.3438 C.3     1  UNL1        0.0476
     12 C         141.0768  138.7681  165.0806 C.3     1  UNL1        0.0999
     13 C         143.0047  140.3860  161.3502 C.3     1  UNL1        0.1123
     14 C         143.6474  140.9253  160.1068 C.3     1  UNL1        0.0939
     15 C         141.7639  141.7338  167.6267 C.ar    1  UNL1       -0.0042
     16 C         142.9927  141.7592  168.4866 C.ar    1  UNL1       -0.0003
     17 C         143.0075  142.5680  169.7497 C.ar    1  UNL1       -0.0000
     18 C         141.7935  143.3514  170.1530 C.ar    1  UNL1       -0.0000
     19 C         140.5647  143.3259  169.2931 C.ar    1  UNL1       -0.0000
     20 C         140.5499  142.5171  168.0300 C.ar    1  UNL1       -0.0003
     21 C         144.1601  139.9016  156.3088 C.3     1  UNL1        0.0173
     22 C         144.2752  140.6559  157.6002 C.3     1  UNL1        0.0577
     23 C         145.0331  141.9494  157.6481 C.3     1  UNL1        0.0173
@<TRIPOS>BOND
     1    21    22    1
     2    22    23    1
     3    22     1    1
     4     1     2    1
     5     2     3    1
     6     3     4    1
     7     4     5   am
     8     5     6    2
     9     5     7   am
    10     7     8    1
    11     8     9    1
    12     9    10    2
    13    10    15    1
    14    15    16   ar
    15    16    17   ar
    16    17    18   ar
    17    18    19   ar
    18    19    20   ar
    19    10    11    1
    20    11    12    1
    21     4    13    1
    22    13    14    1
    23    14     1    1
    24    12     7    1
    25    20    15   ar
@<TRIPOS>MOLECULE
*****
 23 25 0 0 0
SMALL
GASTEIGER

@<TRIPOS>ATOM
      1 N         141.8797  144.5480  159.2644 N.3     1  UNL1       -0.2711
      2 C         142.9832  143.5716  158.9835 C.3     1  UNL1        0.0939
      3 C         143.4457  142.6330  160.0582 C.3     1  UNL1        0.1123
      4 N         142.8048  142.6707  161.4138 N.am    1  UNL1       -0.2612
      5 C         143.2673  141.7321  162.4886 C.2     1  UNL1        0.3075
      6 O         144.3708  140.7558  162.2077 O.2     1  UNL1       -0.2523
      7 N         142.6263  141.7698  163.8442 N.am    1  UNL1       -0.2596
      8 C         141.5228  142.7463  164.1251 C.3     1  UNL1        0.1211
      9 C         140.8818  142.7840  165.4807 C.2     1  UNL1       -0.0088
     10 C         141.3443  141.8454  166.5554 C.2     1  UNL1       -0.0231
     11 C         142.4479  140.8690  166.2745 C.3     1  UNL1        0.0476
     12 C         143.0889  140.8312  164.9189 C.3     1  UNL1        0.0999
     13 C         141.7013  143.6471  161.6947 C.3     1  UNL1        0.1123
     14 C         141.2387  144.5857  160.6200 C.3     1  UNL1        0.0939
     15 C         140.7033  141.8831  167.9111 C.ar    1  UNL1       -0.0042
     16 C         140.7775  143.1302  168.7413 C.ar    1  UNL1       -0.0003
     17 C         140.1365  143.1679  170.0968 C.ar    1  UNL1       -0.0000
     18 C         139.4213  141.9586  170.6222 C.ar    1  UNL1       -0.0000
     19 C         139.3471  140.7115  169.7920 C.ar    1  UNL1       -0.0000
     20 C         139.9881  140.6738  168.4364 C.ar    1  UNL1       -0.0003
     21 C         140.0369  146.0710  158.2472 C.3     1  UNL1        0.0173
     22 C         141.4172  145.4866  158.1897 C.3     1  UNL1        0.0577
     23 C         142.3349  145.8410  157.0574 C.3     1  UNL1        0.0173
@<TRIPOS>BOND
     1    21    22    1
     2    22    23    1
     3    22     1    1
     4     1     2    1
     5     2     3    1
     6     3     4    1
     7     4     5   am
     8     5     6    2
     9     5     7   am
    10     7     8    1
    11     8     9    1
    12     9    10    2
    13    10    15    1
    14    15    16   ar
    15    16    17   ar
    16    17    18   ar
    17    18    19   ar
    18    19    20   ar
    19    10    11    1
    20    11    12    1
    21     4    13    1
    22    13    14    1
    23    14     1    1
    24    12     7    1
    25    20    15   ar
@<TRIPOS>MOLECULE
*****
 23 25 0 0 0
SMALL
GASTEIGER

@<TRIPOS>ATOM
      1 N         141.9935  139.0186  158.9955 N.3     1  UNL1       -0.2711
      2 C         140.6038  138.5262  158.7195 C.3     1  UNL1        0.0939
      3 C         139.6222  138.3812  159.8444 C.3     1  UNL1        0.1123
      4 N         140.0303  138.7287  161.2454 N.am    1  UNL1       -0.2612
      5 C         139.0487  138.5838  162.3703 C.2     1  UNL1        0.3075
      6 O         137.6590  138.0913  162.0943 O.2     1  UNL1       -0.2523
      7 N         139.4568  138.9312  163.7712 N.am    1  UNL1       -0.2596
      8 C         140.8466  139.4237  164.0473 C.3     1  UNL1        0.1211
      9 C         141.2547  139.7712  165.4482 C.2     1  UNL1       -0.0088
     10 C         140.2731  139.6263  166.5731 C.2     1  UNL1       -0.0231
     11 C         138.8834  139.1338  166.2971 C.3     1  UNL1        0.0476
     12 C         138.4752  138.7863  164.8961 C.3     1  UNL1        0.0999
     13 C         141.4200  139.2211  161.5213 C.3     1  UNL1        0.1123
     14 C         142.4016  139.3661  160.3964 C.3     1  UNL1        0.0939
     15 C         140.6813  139.9738  167.9741 C.ar    1  UNL1       -0.0042
     16 C         142.1127  139.8251  168.3970 C.ar    1  UNL1       -0.0003
     17 C         142.5208  140.1726  169.7979 C.ar    1  UNL1       -0.0000
     18 C         141.4975  140.6688  170.7760 C.ar    1  UNL1       -0.0000
     19 C         140.0660  140.8175  170.3531 C.ar    1  UNL1       -0.0000
     20 C         139.6579  140.4699  168.9522 C.ar    1  UNL1       -0.0003
     21 C         143.0501  138.1147  156.8009 C.3     1  UNL1        0.0173
     22 C         142.9751  139.1635  157.8705 C.3     1  UNL1        0.0577
     23 C         143.8816  140.3573  157.8153 C.3     1  UNL1        0.0173
@<TRIPOS>BOND
     1    21    22    1
     2    22    23    1
     3    22     1    1
     4     1     2    1
     5     2     3    1
     6     3     4    1
     7     4     5   am
     8     5     6    2
     9     5     7   am
    10     7     8    1
    11     8     9    1
    12     9    10    2
    13    10    15    1
    14    15    16   ar
    15    16    17   ar
    16    17    18   ar
    17    18    19   ar
    18    19    20   ar
    19    10    11    1
    20    11    12    1
    21     4    13    1
    22    13    14    1
    23    14     1    1
    24    12     7    1
    25    20    15   ar
@<TRIPOS>MOLECULE
*****
 23 25 0 0 0
SMALL
GASTEIGER

@<TRIPOS>ATOM
      1 N         141.0956  143.6064  159.1370 N.3     1  UNL1       -0.2711
      2 C         139.7282  143.1491  158.7237 C.3     1  UNL1        0.0939
      3 C         138.8611  142.4041  159.6949 C.3     1  UNL1        0.1123
      4 N         139.3615  142.1164  161.0793 N.am    1  UNL1       -0.2612
      5 C         138.4945  141.3714  162.0505 C.2     1  UNL1        0.3075
      6 O         137.1270  140.9141  161.6373 O.2     1  UNL1       -0.2523
      7 N         138.9949  141.0837  163.4350 N.am    1  UNL1       -0.2596
      8 C         140.3625  141.5410  163.8483 C.3     1  UNL1        0.1211
      9 C         140.8629  141.2532  165.2327 C.2     1  UNL1       -0.0088
     10 C         139.9959  140.5082  166.2039 C.2     1  UNL1       -0.0231
     11 C         138.6284  140.0509  165.7906 C.3     1  UNL1        0.0476
     12 C         138.1279  140.3387  164.4061 C.3     1  UNL1        0.0999
     13 C         140.7290  142.5737  161.4926 C.3     1  UNL1        0.1123
     14 C         141.5961  143.3187  160.5214 C.3     1  UNL1        0.0939
     15 C         140.4964  140.2205  167.5884 C.ar    1  UNL1       -0.0042
     16 C         141.9075  139.7554  167.7942 C.ar    1  UNL1       -0.0003
     17 C         142.4079  139.4678  169.1787 C.ar    1  UNL1       -0.0000
     18 C         141.4972  139.6451  170.3573 C.ar    1  UNL1       -0.0000
     19 C         140.0861  140.1102  170.1515 C.ar    1  UNL1       -0.0000
     20 C         139.5857  140.3978  168.7671 C.ar    1  UNL1       -0.0003
     21 C         143.0857  143.6438  157.4672 C.3     1  UNL1        0.0173
     22 C         141.9627  144.3514  158.1658 C.3     1  UNL1        0.0577
     23 C         141.7068  145.8040  157.8932 C.3     1  UNL1        0.0173
@<TRIPOS>BOND
     1    21    22    1
     2    22    23    1
     3    22     1    1
     4     1     2    1
     5     2     3    1
     6     3     4    1
     7     4     5   am
     8     5     6    2
     9     5     7   am
    10     7     8    1
    11     8     9    1
    12     9    10    2
    13    10    15    1
    14    15    16   ar
    15    16    17   ar
    16    17    18   ar
    17    18    19   ar
    18    19    20   ar
    19    10    11    1
    20    11    12    1
    21     4    13    1
    22    13    14    1
    23    14     1    1
    24    12     7    1
    25    20    15   ar
@<TRIPOS>MOLECULE
*****
 23 25 0 0 0
SMALL
GASTEIGER

@<TRIPOS>ATOM
      1 N         140.1066  143.4604  158.5847 N.3     1  UNL1       -0.2711
      2 C         141.5803  143.6897  158.4256 C.3     1  UNL1        0.0939
      3 C         142.4854  143.6066  159.6188 C.3     1  UNL1        0.1123
      4 N         141.9168  143.2942  160.9712 N.am    1  UNL1       -0.2612
      5 C         142.8219  143.2111  162.1645 C.2     1  UNL1        0.3075
      6 O         144.2957  143.4404  162.0054 O.2     1  UNL1       -0.2523
      7 N         142.2532  142.8987  163.5169 N.am    1  UNL1       -0.2596
      8 C         140.7794  142.6694  163.6760 C.3     1  UNL1        0.1211
      9 C         140.2107  142.3570  165.0284 C.2     1  UNL1       -0.0088
     10 C         141.1158  142.2739  166.2217 C.2     1  UNL1       -0.0231
     11 C         142.5896  142.5032  166.0626 C.3     1  UNL1        0.0476
     12 C         143.1583  142.8156  164.7101 C.3     1  UNL1        0.0999
     13 C         140.4430  143.0649  161.1303 C.3     1  UNL1        0.1123
     14 C         139.5379  143.1480  159.9371 C.3     1  UNL1        0.0939
     15 C         140.5471  141.9615  167.5741 C.ar    1  UNL1       -0.0042
     16 C         139.9026  140.6309  167.8276 C.ar    1  UNL1       -0.0003
     17 C         139.3339  140.3186  169.1800 C.ar    1  UNL1       -0.0000
     18 C         139.4097  141.3368  170.2789 C.ar    1  UNL1       -0.0000
     19 C         140.0542  142.6673  170.0254 C.ar    1  UNL1       -0.0000
     20 C         140.6229  142.9796  168.6730 C.ar    1  UNL1       -0.0003
     21 C         139.5047  144.5108  156.2860 C.3     1  UNL1        0.0173
     22 C         139.2014  143.5434  157.3914 C.3     1  UNL1        0.0577
     23 C         137.9931  142.6591  157.3036 C.3     1  UNL1        0.0173
@<TRIPOS>BOND
     1    21    22    1
     2    22    23    1
     3    22     1    1
     4     1     2    1
     5     2     3    1
     6     3     4    1
     7     4     5   am
     8     5     6    2
     9     5     7   am
    10     7     8    1
    11     8     9    1
    12     9    10    2
    13    10    15    1
    14    15    16   ar
    15    16    17   ar
    16    17    18   ar
    17    18    19   ar
    18    19    20   ar
    19    10    11    1
    20    11    12    1
    21     4    13    1
    22    13    14    1
    23    14     1    1
    24    12     7    1
    25    20    15   ar
