@<TRIPOS>MOLECULE
*****
 39 43 0 0 0
SMALL
GASTEIGER

@<TRIPOS>ATOM
      1 C         138.5702  140.0140  156.7613 C.3     1  UNL1        0.1024
      2 C         137.9775  140.6616  155.5451 C.3     1  UNL1        0.0643
      3 C         137.4077  142.0462  155.6352 C.3     1  UNL1        0.1368
      4 C         136.7506  143.3297  155.2217 C.3     1  UNL1        0.0437
      5 C         137.1566  141.7551  154.1853 C.3     1  UNL1        0.0437
      6 O         137.4306  142.7832  156.9415 O.3     1  UNL1       -0.4676
      7 C         138.0233  142.1355  158.1577 C.ar    1  UNL1        0.2219
      8 N         138.0462  142.8725  159.4639 N.ar    1  UNL1       -0.2119
      9 C         138.6389  142.2248  160.6801 C.ar    1  UNL1        0.0851
     10 C         139.2087  140.8402  160.5901 C.ar    1  UNL1        0.0177
     11 C         139.1858  140.1032  159.2838 C.ar    1  UNL1        0.0034
     12 C         138.5931  140.7509  158.0676 C.ar    1  UNL1        0.0488
     13 C         138.6617  142.9618  161.9864 C.ar    1  UNL1        0.0284
     14 C         137.5919  142.7114  163.0077 C.ar    1  UNL1        0.0032
     15 C         137.6148  143.4483  164.3140 C.ar    1  UNL1        0.0115
     16 C         138.7075  144.4357  164.5990 C.ar    1  UNL1        0.0585
     17 CL        138.7304  145.1726  165.9053 Cl      1  UNL1       -0.0822
     18 C         139.7773  144.6860  163.5778 C.ar    1  UNL1        0.0228
     19 C         139.7544  143.9491  162.2715 C.ar    1  UNL1        0.0599
     20 CL        140.8241  144.1995  161.2503 Cl      1  UNL1       -0.0822
     21 C         139.8014  140.1925  161.8063 C.ar    1  UNL1        0.0015
     22 C         141.2243  140.4745  162.1881 C.ar    1  UNL1        0.0009
     23 C         141.8170  139.8268  163.4043 C.ar    1  UNL1        0.0114
     24 C         140.9868  138.8972  164.2388 C.ar    1  UNL1        0.0577
     25 CL        141.5795  138.2495  165.4550 Cl      1  UNL1       -0.0822
     26 C         139.5639  138.6151  163.8571 C.ar    1  UNL1        0.0114
     27 C         138.9712  139.2628  162.6408 C.ar    1  UNL1        0.0009
     28 C         140.5637  138.4306  156.2426 C.2     1  UNL1        0.2655
     29 O         141.4175  139.6166  155.9039 O.2     1  UNL1       -0.2684
     30 N         139.1400  138.6293  156.6712 N.am    1  UNL1       -0.2972
     31 H         138.5797  137.8510  156.8935 H       1  UNL1        0.1500
     32 C         142.5836  135.1228  156.4511 C.ar    1  UNL1        0.0532
     33 C         142.3958  136.5678  156.8069 C.ar    1  UNL1        0.0395
     34 C         141.1336  137.0461  156.1525 C.ar    1  UNL1        0.1549
     35 N         140.5413  135.8966  155.3923 N.ar    1  UNL1       -0.1683
     36 N         141.4374  134.7080  155.5768 N.ar    1  UNL1       -0.2796
     37 H         141.2978  133.8127  155.1917 H       1  UNL1        0.1886
     38 C         144.0461  133.0006  156.1238 C.3     1  UNL1        0.0067
     39 C         143.7183  134.2465  156.8921 C.3     1  UNL1        0.0452
@<TRIPOS>BOND
     1    38    39    1
     2    39    32    1
     3    32    33   ar
     4    33    34   ar
     5    34    28    1
     6    28    29    2
     7    28    30   am
     8     1    30    1
     9     1     2    1
    10     2     3    1
    11     3     4    1
    12     3     5    1
    13     3     6    1
    14     6     7    1
    15     7     8   ar
    16     8     9   ar
    17     9    13    1
    18    13    14   ar
    19    14    15   ar
    20    15    16   ar
    21    16    17    1
    22    16    18   ar
    23    18    19   ar
    24    19    20    1
    25     9    10   ar
    26    10    21    1
    27    21    22   ar
    28    22    23   ar
    29    23    24   ar
    30    24    25    1
    31    24    26   ar
    32    26    27   ar
    33    10    11   ar
    34    11    12   ar
    35    34    35   ar
    36    35    36   ar
    37    36    32   ar
    38    12     1    1
    39    12     7   ar
    40    19    13   ar
    41    27    21   ar
    42    30    31    1
    43    36    37    1
@<TRIPOS>MOLECULE
*****
 39 43 0 0 0
SMALL
GASTEIGER

@<TRIPOS>ATOM
      1 C         141.9824  139.8201  157.4098 C.3     1  UNL1        0.1024
      2 C         141.3863  139.1155  156.2273 C.3     1  UNL1        0.0643
      3 C         140.2056  138.2088  156.4115 C.3     1  UNL1        0.1368
      4 C         139.0938  137.2576  156.0812 C.3     1  UNL1        0.0437
      5 C         140.4040  138.0805  154.9302 C.3     1  UNL1        0.0437
      6 O         139.6210  138.0068  157.7780 O.3     1  UNL1       -0.4676
      7 C         140.2171  138.7114  158.9604 C.ar    1  UNL1        0.2219
      8 N         139.6326  138.5093  160.3270 N.ar    1  UNL1       -0.2119
      9 C         140.2287  139.2139  161.5094 C.ar    1  UNL1        0.0851
     10 C         141.4094  140.1206  161.3253 C.ar    1  UNL1        0.0177
     11 C         141.9940  140.3227  159.9588 C.ar    1  UNL1        0.0034
     12 C         141.3978  139.6180  158.7763 C.ar    1  UNL1        0.0488
     13 C         139.6441  139.0118  162.8759 C.ar    1  UNL1        0.0284
     14 C         138.6238  139.9757  163.4052 C.ar    1  UNL1        0.0032
     15 C         138.0392  139.7736  164.7718 C.ar    1  UNL1        0.0115
     16 C         138.4749  138.6077  165.6090 C.ar    1  UNL1        0.0585
     17 CL        137.8904  138.4056  166.9756 Cl      1  UNL1       -0.0822
     18 C         139.4952  137.6440  165.0797 C.ar    1  UNL1        0.0228
     19 C         140.0798  137.8460  163.7132 C.ar    1  UNL1        0.0599
     20 CL        141.1000  136.8823  163.1839 Cl      1  UNL1       -0.0822
     21 C         142.0055  140.8252  162.5077 C.ar    1  UNL1        0.0015
     22 C         143.0574  140.1460  163.3336 C.ar    1  UNL1        0.0009
     23 C         143.6535  140.8507  164.5161 C.ar    1  UNL1        0.0114
     24 C         143.1977  142.2345  164.8726 C.ar    1  UNL1        0.0577
     25 CL        143.7938  142.9391  166.0550 Cl      1  UNL1       -0.0822
     26 C         142.1457  142.9137  164.0468 C.ar    1  UNL1        0.0114
     27 C         141.5496  142.2091  162.8644 C.ar    1  UNL1        0.0009
     28 C         144.4182  140.2044  156.5917 C.2     1  UNL1        0.2655
     29 O         144.4926  138.7754  156.1419 O.2     1  UNL1       -0.2684
     30 N         143.1631  140.7268  157.2257 N.am    1  UNL1       -0.2972
     31 H         143.1143  141.6647  157.5209 H       1  UNL1        0.1500
     32 C         147.6240  142.1126  155.5208 C.ar    1  UNL1        0.0532
     33 C         146.6298  141.0070  155.3230 C.ar    1  UNL1        0.0395
     34 C         145.5989  141.1111  156.4076 C.ar    1  UNL1        0.1549
     35 N         145.9560  142.2809  157.2759 N.ar    1  UNL1       -0.1683
     36 N         147.2076  142.8999  156.7278 N.ar    1  UNL1       -0.2796
     37 H         147.6739  143.6851  157.0957 H       1  UNL1        0.1886
     38 C         150.1376  141.7341  154.9835 C.3     1  UNL1        0.0067
     39 C         148.8240  142.3833  154.6625 C.3     1  UNL1        0.0452
@<TRIPOS>BOND
     1    38    39    1
     2    39    32    1
     3    32    33   ar
     4    33    34   ar
     5    34    28    1
     6    28    29    2
     7    28    30   am
     8     1    30    1
     9     1     2    1
    10     2     3    1
    11     3     4    1
    12     3     5    1
    13     3     6    1
    14     6     7    1
    15     7     8   ar
    16     8     9   ar
    17     9    13    1
    18    13    14   ar
    19    14    15   ar
    20    15    16   ar
    21    16    17    1
    22    16    18   ar
    23    18    19   ar
    24    19    20    1
    25     9    10   ar
    26    10    21    1
    27    21    22   ar
    28    22    23   ar
    29    23    24   ar
    30    24    25    1
    31    24    26   ar
    32    26    27   ar
    33    10    11   ar
    34    11    12   ar
    35    34    35   ar
    36    35    36   ar
    37    36    32   ar
    38    12     1    1
    39    12     7   ar
    40    19    13   ar
    41    27    21   ar
    42    30    31    1
    43    36    37    1
@<TRIPOS>MOLECULE
*****
 39 43 0 0 0
SMALL
GASTEIGER

@<TRIPOS>ATOM
      1 C         139.6736  140.5454  156.4981 C.3     1  UNL1        0.1024
      2 C         138.6935  140.8098  155.3939 C.3     1  UNL1        0.0643
      3 C         137.5317  141.7295  155.6266 C.3     1  UNL1        0.1368
      4 C         136.2822  142.5166  155.3633 C.3     1  UNL1        0.0437
      5 C         137.2794  141.3477  154.1981 C.3     1  UNL1        0.0437
      6 O         137.3499  142.3848  156.9636 O.3     1  UNL1       -0.4676
      7 C         138.3300  142.1203  158.0679 C.ar    1  UNL1        0.2219
      8 N         138.1482  142.7756  159.4049 N.ar    1  UNL1       -0.2119
      9 C         139.1283  142.5112  160.5092 C.ar    1  UNL1        0.0851
     10 C         140.2903  141.5914  160.2764 C.ar    1  UNL1        0.0177
     11 C         140.4720  140.9361  158.9394 C.ar    1  UNL1        0.0034
     12 C         139.4918  141.2006  157.8351 C.ar    1  UNL1        0.0488
     13 C         138.9466  143.1664  161.8462 C.ar    1  UNL1        0.0284
     14 C         139.6539  144.4531  162.1532 C.ar    1  UNL1        0.0032
     15 C         139.4722  145.1084  163.4902 C.ar    1  UNL1        0.0115
     16 C         138.5831  144.4769  164.5202 C.ar    1  UNL1        0.0585
     17 CL        138.4013  145.1322  165.8572 Cl      1  UNL1       -0.0822
     18 C         137.8758  143.1903  164.2132 C.ar    1  UNL1        0.0228
     19 C         138.0576  142.5350  162.8762 C.ar    1  UNL1        0.0599
     20 CL        137.3503  141.2484  162.5692 Cl      1  UNL1       -0.0822
     21 C         141.2704  141.3270  161.3807 C.ar    1  UNL1        0.0015
     22 C         140.9963  140.2459  162.3838 C.ar    1  UNL1        0.0009
     23 C         141.9765  139.9815  163.4881 C.ar    1  UNL1        0.0114
     24 C         143.2306  140.7981  163.5893 C.ar    1  UNL1        0.0577
     25 CL        144.2107  140.5337  164.6935 Cl      1  UNL1       -0.0822
     26 C         143.5047  141.8792  162.5862 C.ar    1  UNL1        0.0114
     27 C         142.5246  142.1436  161.4819 C.ar    1  UNL1        0.0009
     28 C         140.7258  138.1732  156.6238 C.2     1  UNL1        0.2655
     29 O         139.4542  137.6405  157.2149 O.2     1  UNL1       -0.2684
     30 N         140.8355  139.6256  156.2654 N.am    1  UNL1       -0.2972
     31 H         141.6701  139.9753  155.8775 H       1  UNL1        0.1500
     32 C         143.2043  135.2576  155.9742 C.ar    1  UNL1        0.0532
     33 C         141.8081  135.7736  156.1592 C.ar    1  UNL1        0.0395
     34 C         141.8877  137.2535  156.3911 C.ar    1  UNL1        0.1549
     35 N         143.3331  137.6521  156.3495 N.ar    1  UNL1       -0.1683
     36 N         144.1469  136.4186  156.0918 N.ar    1  UNL1       -0.2796
     37 H         145.1274  136.3782  156.0136 H       1  UNL1        0.1886
     38 C         142.6387  132.7233  156.0590 C.3     1  UNL1        0.0067
     39 C         143.5903  133.8312  155.7168 C.3     1  UNL1        0.0452
@<TRIPOS>BOND
     1    38    39    1
     2    39    32    1
     3    32    33   ar
     4    33    34   ar
     5    34    28    1
     6    28    29    2
     7    28    30   am
     8     1    30    1
     9     1     2    1
    10     2     3    1
    11     3     4    1
    12     3     5    1
    13     3     6    1
    14     6     7    1
    15     7     8   ar
    16     8     9   ar
    17     9    13    1
    18    13    14   ar
    19    14    15   ar
    20    15    16   ar
    21    16    17    1
    22    16    18   ar
    23    18    19   ar
    24    19    20    1
    25     9    10   ar
    26    10    21    1
    27    21    22   ar
    28    22    23   ar
    29    23    24   ar
    30    24    25    1
    31    24    26   ar
    32    26    27   ar
    33    10    11   ar
    34    11    12   ar
    35    34    35   ar
    36    35    36   ar
    37    36    32   ar
    38    12     1    1
    39    12     7   ar
    40    19    13   ar
    41    27    21   ar
    42    30    31    1
    43    36    37    1
@<TRIPOS>MOLECULE
*****
 39 43 0 0 0
SMALL
GASTEIGER

@<TRIPOS>ATOM
      1 C         140.9110  141.5908  156.3737 C.3     1  UNL1        0.1024
      2 C         140.8053  142.4987  155.1844 C.3     1  UNL1        0.0643
      3 C         140.3374  143.9130  155.3597 C.3     1  UNL1        0.1368
      4 C         139.9484  145.3213  155.0202 C.3     1  UNL1        0.0437
      5 C         140.5645  143.8957  153.8771 C.3     1  UNL1        0.0437
      6 O         139.9753  144.4194  156.7244 O.3     1  UNL1       -0.4676
      7 C         140.0810  143.5116  157.9137 C.ar    1  UNL1        0.2219
      8 N         139.7188  144.0180  159.2784 N.ar    1  UNL1       -0.2119
      9 C         139.8245  143.1102  160.4677 C.ar    1  UNL1        0.0851
     10 C         140.2924  141.6958  160.2924 C.ar    1  UNL1        0.0177
     11 C         140.6546  141.1893  158.9277 C.ar    1  UNL1        0.0034
     12 C         140.5489  142.0973  157.7384 C.ar    1  UNL1        0.0488
     13 C         139.4624  143.6166  161.8324 C.ar    1  UNL1        0.0284
     14 C         138.0701  143.4273  162.3575 C.ar    1  UNL1        0.0032
     15 C         137.7079  143.9337  163.7222 C.ar    1  UNL1        0.0115
     16 C         138.7381  144.6295  164.5618 C.ar    1  UNL1        0.0585
     17 CL        138.3759  145.1359  165.9265 Cl      1  UNL1       -0.0822
     18 C         140.1303  144.8187  164.0367 C.ar    1  UNL1        0.0228
     19 C         140.4925  144.3123  162.6720 C.ar    1  UNL1        0.0599
     20 CL        141.8847  144.5016  162.1468 Cl      1  UNL1       -0.0822
     21 C         140.3981  140.7879  161.4818 C.ar    1  UNL1        0.0015
     22 C         141.6596  140.7581  162.2928 C.ar    1  UNL1        0.0009
     23 C         141.7653  139.8501  163.4822 C.ar    1  UNL1        0.0114
     24 C         140.6095  138.9721  163.8605 C.ar    1  UNL1        0.0577
     25 CL        140.7152  138.0643  165.0498 Cl      1  UNL1       -0.0822
     26 C         139.3480  139.0019  163.0495 C.ar    1  UNL1        0.0114
     27 C         139.2423  139.9098  161.8601 C.ar    1  UNL1        0.0009
     28 C         142.8284  139.8376  156.3832 C.2     1  UNL1        0.2655
     29 O         143.8100  140.9132  156.7433 O.2     1  UNL1       -0.2684
     30 N         141.3789  140.1764  156.1984 N.am    1  UNL1       -0.2972
     31 H         140.7346  139.4705  155.9620 H       1  UNL1        0.1500
     32 C         143.4153  136.0015  156.3137 C.ar    1  UNL1        0.0532
     33 C         142.5989  137.1949  156.7125 C.ar    1  UNL1        0.0395
     34 C         143.2963  138.4233  156.2079 C.ar    1  UNL1        0.1549
     35 N         144.5439  137.9891  155.4972 N.ar    1  UNL1       -0.1683
     36 N         144.6174  136.4923  155.5626 N.ar    1  UNL1       -0.2796
     37 H         145.3297  135.9307  155.1797 H       1  UNL1        0.1886
     38 C         143.6544  133.9094  157.8355 C.3     1  UNL1        0.0067
     39 C         143.0874  134.5688  156.6134 C.3     1  UNL1        0.0452
@<TRIPOS>BOND
     1    38    39    1
     2    39    32    1
     3    32    33   ar
     4    33    34   ar
     5    34    28    1
     6    28    29    2
     7    28    30   am
     8     1    30    1
     9     1     2    1
    10     2     3    1
    11     3     4    1
    12     3     5    1
    13     3     6    1
    14     6     7    1
    15     7     8   ar
    16     8     9   ar
    17     9    13    1
    18    13    14   ar
    19    14    15   ar
    20    15    16   ar
    21    16    17    1
    22    16    18   ar
    23    18    19   ar
    24    19    20    1
    25     9    10   ar
    26    10    21    1
    27    21    22   ar
    28    22    23   ar
    29    23    24   ar
    30    24    25    1
    31    24    26   ar
    32    26    27   ar
    33    10    11   ar
    34    11    12   ar
    35    34    35   ar
    36    35    36   ar
    37    36    32   ar
    38    12     1    1
    39    12     7   ar
    40    19    13   ar
    41    27    21   ar
    42    30    31    1
    43    36    37    1
@<TRIPOS>MOLECULE
*****
 39 43 0 0 0
SMALL
GASTEIGER

@<TRIPOS>ATOM
      1 C         143.1396  139.1911  157.2223 C.3     1  UNL1        0.1024
      2 C         143.7077  139.9248  156.0437 C.3     1  UNL1        0.0643
      3 C         143.5289  141.4095  155.9273 C.3     1  UNL1        0.1368
      4 C         143.6206  142.8013  155.3755 C.3     1  UNL1        0.0437
      5 C         144.3076  141.1419  154.6736 C.3     1  UNL1        0.0437
      6 O         142.7820  142.1606  156.9894 O.3     1  UNL1       -0.4676
      7 C         142.2139  141.4269  158.1680 C.ar    1  UNL1        0.2219
      8 N         141.4671  142.1780  159.2301 N.ar    1  UNL1       -0.2119
      9 C         140.8990  141.4444  160.4086 C.ar    1  UNL1        0.0851
     10 C         141.0777  139.9596  160.5251 C.ar    1  UNL1        0.0177
     11 C         141.8246  139.2085  159.4630 C.ar    1  UNL1        0.0034
     12 C         142.3927  139.9422  158.2844 C.ar    1  UNL1        0.0488
     13 C         140.1521  142.1954  161.4707 C.ar    1  UNL1        0.0284
     14 C         138.6639  142.3551  161.3706 C.ar    1  UNL1        0.0032
     15 C         137.9171  143.1061  162.4327 C.ar    1  UNL1        0.0115
     16 C         138.6584  143.6976  163.5949 C.ar    1  UNL1        0.0585
     17 CL        137.9115  144.4487  164.6570 Cl      1  UNL1       -0.0822
     18 C         140.1464  143.5380  163.6950 C.ar    1  UNL1        0.0228
     19 C         140.8933  142.7869  162.6329 C.ar    1  UNL1        0.0599
     20 CL        142.3814  142.6272  162.7330 Cl      1  UNL1       -0.0822
     21 C         140.5096  139.2259  161.7036 C.ar    1  UNL1        0.0015
     22 C         141.2850  139.1512  162.9854 C.ar    1  UNL1        0.0009
     23 C         140.7169  138.4175  164.1640 C.ar    1  UNL1        0.0114
     24 C         139.3733  137.7586  164.0607 C.ar    1  UNL1        0.0577
     25 CL        138.8052  137.0249  165.2392 Cl      1  UNL1       -0.0822
     26 C         138.5979  137.8333  162.7788 C.ar    1  UNL1        0.0114
     27 C         139.1660  138.5670  161.6003 C.ar    1  UNL1        0.0009
     28 C         142.4069  136.7802  156.5894 C.2     1  UNL1        0.2655
     29 O         141.3168  137.3388  155.7236 O.2     1  UNL1       -0.2684
     30 N         143.3183  137.7063  157.3387 N.am    1  UNL1       -0.2972
     31 H         144.0338  137.3397  157.9070 H       1  UNL1        0.1500
     32 C         142.4372  132.9117  156.2739 C.ar    1  UNL1        0.0532
     33 C         142.0056  134.2627  155.7855 C.ar    1  UNL1        0.0395
     34 C         142.5856  135.2954  156.7058 C.ar    1  UNL1        0.1549
     35 N         143.3757  134.5827  157.7631 N.ar    1  UNL1       -0.1683
     36 N         143.2840  133.1095  157.4962 N.ar    1  UNL1       -0.2796
     37 H         143.7056  132.3975  158.0295 H       1  UNL1        0.1886
     38 C         140.9810  131.5162  154.6362 C.3     1  UNL1        0.0067
     39 C         142.0841  131.5943  155.6497 C.3     1  UNL1        0.0452
@<TRIPOS>BOND
     1    38    39    1
     2    39    32    1
     3    32    33   ar
     4    33    34   ar
     5    34    28    1
     6    28    29    2
     7    28    30   am
     8     1    30    1
     9     1     2    1
    10     2     3    1
    11     3     4    1
    12     3     5    1
    13     3     6    1
    14     6     7    1
    15     7     8   ar
    16     8     9   ar
    17     9    13    1
    18    13    14   ar
    19    14    15   ar
    20    15    16   ar
    21    16    17    1
    22    16    18   ar
    23    18    19   ar
    24    19    20    1
    25     9    10   ar
    26    10    21    1
    27    21    22   ar
    28    22    23   ar
    29    23    24   ar
    30    24    25    1
    31    24    26   ar
    32    26    27   ar
    33    10    11   ar
    34    11    12   ar
    35    34    35   ar
    36    35    36   ar
    37    36    32   ar
    38    12     1    1
    39    12     7   ar
    40    19    13   ar
    41    27    21   ar
    42    30    31    1
    43    36    37    1
@<TRIPOS>MOLECULE
*****
 39 43 0 0 0
SMALL
GASTEIGER

@<TRIPOS>ATOM
      1 C         143.6100  139.7575  156.2253 C.3     1  UNL1        0.1024
      2 C         144.2935  140.3837  155.0461 C.3     1  UNL1        0.0643
      3 C         145.1373  141.6097  155.2323 C.3     1  UNL1        0.1368
      4 C         146.0336  142.7671  154.9048 C.3     1  UNL1        0.0437
      5 C         145.2883  141.4119  153.7531 C.3     1  UNL1        0.0437
      6 O         145.2976  142.2095  156.5978 O.3     1  UNL1       -0.4676
      7 C         144.6141  141.5833  157.7770 C.ar    1  UNL1        0.2219
      8 N         144.7744  142.1831  159.1425 N.ar    1  UNL1       -0.2119
      9 C         144.0909  141.5569  160.3217 C.ar    1  UNL1        0.0851
     10 C         143.2470  140.3308  160.1355 C.ar    1  UNL1        0.0177
     11 C         143.0867  139.7310  158.7700 C.ar    1  UNL1        0.0034
     12 C         143.7703  140.3573  157.5908 C.ar    1  UNL1        0.0488
     13 C         144.2512  142.1567  161.6872 C.ar    1  UNL1        0.0284
     14 C         145.2800  141.6084  162.6312 C.ar    1  UNL1        0.0032
     15 C         145.4403  142.2082  163.9966 C.ar    1  UNL1        0.0115
     16 C         144.5719  143.3564  164.4181 C.ar    1  UNL1        0.0585
     17 CL        144.7322  143.9562  165.7836 Cl      1  UNL1       -0.0822
     18 C         143.5432  143.9047  163.4741 C.ar    1  UNL1        0.0228
     19 C         143.3829  143.3049  162.1087 C.ar    1  UNL1        0.0599
     20 CL        142.3542  143.8532  161.1647 Cl      1  UNL1       -0.0822
     21 C         142.5635  139.7046  161.3147 C.ar    1  UNL1        0.0015
     22 C         143.2213  138.5747  162.0500 C.ar    1  UNL1        0.0009
     23 C         142.5377  137.9485  163.2293 C.ar    1  UNL1        0.0114
     24 C         141.1964  138.4521  163.6732 C.ar    1  UNL1        0.0577
     25 CL        140.5129  137.8259  164.8525 Cl      1  UNL1       -0.0822
     26 C         140.5387  139.5821  162.9380 C.ar    1  UNL1        0.0114
     27 C         141.2222  140.2083  161.7588 C.ar    1  UNL1        0.0009
     28 C         143.4163  137.2084  155.7617 C.2     1  UNL1        0.2655
     29 O         144.9105  137.1115  155.6706 O.2     1  UNL1       -0.2684
     30 N         142.7661  138.5314  156.0391 N.am    1  UNL1       -0.2972
     31 H         141.7855  138.5950  156.0989 H       1  UNL1        0.1500
     32 C         141.8706  133.6635  155.4305 C.ar    1  UNL1        0.0532
     33 C         143.0417  134.5626  155.6950 C.ar    1  UNL1        0.0395
     34 C         142.5725  135.9823  155.5755 C.ar    1  UNL1        0.1549
     35 N         141.1114  135.9607  155.2372 N.ar    1  UNL1       -0.1683
     36 N         140.6775  134.5276  155.1475 N.ar    1  UNL1       -0.2796
     37 H         139.7692  134.2099  154.9395 H       1  UNL1        0.1886
     38 C         140.8165  131.3929  154.7353 C.3     1  UNL1        0.0067
     39 C         141.8891  132.1637  155.4462 C.3     1  UNL1        0.0452
@<TRIPOS>BOND
     1    38    39    1
     2    39    32    1
     3    32    33   ar
     4    33    34   ar
     5    34    28    1
     6    28    29    2
     7    28    30   am
     8     1    30    1
     9     1     2    1
    10     2     3    1
    11     3     4    1
    12     3     5    1
    13     3     6    1
    14     6     7    1
    15     7     8   ar
    16     8     9   ar
    17     9    13    1
    18    13    14   ar
    19    14    15   ar
    20    15    16   ar
    21    16    17    1
    22    16    18   ar
    23    18    19   ar
    24    19    20    1
    25     9    10   ar
    26    10    21    1
    27    21    22   ar
    28    22    23   ar
    29    23    24   ar
    30    24    25    1
    31    24    26   ar
    32    26    27   ar
    33    10    11   ar
    34    11    12   ar
    35    34    35   ar
    36    35    36   ar
    37    36    32   ar
    38    12     1    1
    39    12     7   ar
    40    19    13   ar
    41    27    21   ar
    42    30    31    1
    43    36    37    1
@<TRIPOS>MOLECULE
*****
 39 43 0 0 0
SMALL
GASTEIGER

@<TRIPOS>ATOM
      1 C         143.4938  143.1186  156.8337 C.3     1  UNL1        0.1024
      2 C         144.2547  142.5285  155.6836 C.3     1  UNL1        0.0643
      3 C         144.9796  141.2264  155.8532 C.3     1  UNL1        0.1368
      4 C         145.8181  140.0268  155.5249 C.3     1  UNL1        0.0437
      5 C         145.3068  141.5217  154.4195 C.3     1  UNL1        0.0437
      6 O         144.9436  140.5143  157.1729 O.3     1  UNL1       -0.4676
      7 C         144.1827  141.1044  158.3230 C.ar    1  UNL1        0.2219
      8 N         144.1468  140.3923  159.6428 N.ar    1  UNL1       -0.2119
      9 C         143.3859  140.9824  160.7929 C.ar    1  UNL1        0.0851
     10 C         142.6610  142.2847  160.6233 C.ar    1  UNL1        0.0177
     11 C         142.6969  142.9967  159.3036 C.ar    1  UNL1        0.0034
     12 C         143.4578  142.4066  158.1534 C.ar    1  UNL1        0.0488
     13 C         143.3500  140.2704  162.1126 C.ar    1  UNL1        0.0284
     14 C         142.2709  139.2672  162.3944 C.ar    1  UNL1        0.0032
     15 C         142.2349  138.5552  163.7141 C.ar    1  UNL1        0.0115
     16 C         143.2781  138.8463  164.7521 C.ar    1  UNL1        0.0585
     17 CL        143.2421  138.1342  166.0718 Cl      1  UNL1       -0.0822
     18 C         144.3571  139.8494  164.4702 C.ar    1  UNL1        0.0228
     19 C         144.3930  140.5614  163.1505 C.ar    1  UNL1        0.0599
     20 CL        145.4720  141.5645  162.8687 Cl      1  UNL1       -0.0822
     21 C         141.9001  142.8748  161.7734 C.ar    1  UNL1        0.0015
     22 C         140.4541  142.5289  161.9725 C.ar    1  UNL1        0.0009
     23 C         139.6933  143.1191  163.1227 C.ar    1  UNL1        0.0114
     24 C         140.3783  144.0551  164.0737 C.ar    1  UNL1        0.0577
     25 CL        139.6175  144.6452  165.2238 Cl      1  UNL1       -0.0822
     26 C         141.8243  144.4009  163.8747 C.ar    1  UNL1        0.0114
     27 C         142.5852  143.8108  162.7246 C.ar    1  UNL1        0.0009
     28 C         141.4057  144.4444  156.0385 C.2     1  UNL1        0.2655
     29 O         140.7676  143.1658  155.5824 O.2     1  UNL1       -0.2684
     30 N         142.7688  144.4209  156.6641 N.am    1  UNL1       -0.2972
     31 H         143.1876  145.2600  156.9635 H       1  UNL1        0.1500
     32 C         139.8250  147.8037  154.9064 C.ar    1  UNL1        0.0532
     33 C         140.6750  146.5982  154.6341 C.ar    1  UNL1        0.0395
     34 C         140.6808  145.7466  155.8689 C.ar    1  UNL1        0.1549
     35 N         139.8342  146.4257  156.9043 N.ar    1  UNL1       -0.1683
     36 N         139.3053  147.6971  156.3095 N.ar    1  UNL1       -0.2796
     37 H         138.7198  148.3474  156.7607 H       1  UNL1        0.1886
     38 C         139.6574  150.3457  154.3963 C.3     1  UNL1        0.0067
     39 C         139.5439  148.9199  153.9445 C.3     1  UNL1        0.0452
@<TRIPOS>BOND
     1    38    39    1
     2    39    32    1
     3    32    33   ar
     4    33    34   ar
     5    34    28    1
     6    28    29    2
     7    28    30   am
     8     1    30    1
     9     1     2    1
    10     2     3    1
    11     3     4    1
    12     3     5    1
    13     3     6    1
    14     6     7    1
    15     7     8   ar
    16     8     9   ar
    17     9    13    1
    18    13    14   ar
    19    14    15   ar
    20    15    16   ar
    21    16    17    1
    22    16    18   ar
    23    18    19   ar
    24    19    20    1
    25     9    10   ar
    26    10    21    1
    27    21    22   ar
    28    22    23   ar
    29    23    24   ar
    30    24    25    1
    31    24    26   ar
    32    26    27   ar
    33    10    11   ar
    34    11    12   ar
    35    34    35   ar
    36    35    36   ar
    37    36    32   ar
    38    12     1    1
    39    12     7   ar
    40    19    13   ar
    41    27    21   ar
    42    30    31    1
    43    36    37    1
@<TRIPOS>MOLECULE
*****
 39 43 0 0 0
SMALL
GASTEIGER

@<TRIPOS>ATOM
      1 C         137.0770  143.0211  155.9936 C.3     1  UNL1        0.1024
      2 C         136.0252  142.4079  155.1174 C.3     1  UNL1        0.0643
      3 C         135.5394  141.0154  155.3913 C.3     1  UNL1        0.1368
      4 C         134.7634  139.7397  155.2485 C.3     1  UNL1        0.0437
      5 C         134.7040  141.3515  154.1916 C.3     1  UNL1        0.0437
      6 O         136.1053  140.2363  156.5413 O.3     1  UNL1       -0.4676
      7 C         137.1570  140.8495  157.4175 C.ar    1  UNL1        0.2219
      8 N         137.7229  140.0703  158.5676 N.ar    1  UNL1       -0.2119
      9 C         138.7747  140.6836  159.4438 C.ar    1  UNL1        0.0851
     10 C         139.2605  142.0761  159.1699 C.ar    1  UNL1        0.0177
     11 C         138.6946  142.8553  158.0198 C.ar    1  UNL1        0.0034
     12 C         137.6429  142.2419  157.1436 C.ar    1  UNL1        0.0488
     13 C         139.3406  139.9044  160.5938 C.ar    1  UNL1        0.0284
     14 C         140.5214  139.0041  160.3810 C.ar    1  UNL1        0.0032
     15 C         141.0873  138.2249  161.5311 C.ar    1  UNL1        0.0115
     16 C         140.4724  138.3461  162.8939 C.ar    1  UNL1        0.0585
     17 CL        141.0383  137.5669  164.0440 Cl      1  UNL1       -0.0822
     18 C         139.2916  139.2463  163.1067 C.ar    1  UNL1        0.0228
     19 C         138.7257  140.0255  161.9566 C.ar    1  UNL1        0.0599
     20 CL        137.5450  140.9258  162.1693 Cl      1  UNL1       -0.0822
     21 C         140.3123  142.6894  160.0461 C.ar    1  UNL1        0.0015
     22 C         139.9119  143.5168  161.2315 C.ar    1  UNL1        0.0009
     23 C         140.9638  144.1300  162.1077 C.ar    1  UNL1        0.0114
     24 C         142.4158  143.9159  161.7985 C.ar    1  UNL1        0.0577
     25 CL        143.4675  144.5291  162.6746 Cl      1  UNL1       -0.0822
     26 C         142.8161  143.0885  160.6131 C.ar    1  UNL1        0.0114
     27 C         141.7644  142.4752  159.7369 C.ar    1  UNL1        0.0009
     28 C         138.8273  144.6273  154.9417 C.2     1  UNL1        0.2655
     29 O         139.6060  143.4484  154.4375 O.2     1  UNL1       -0.2684
     30 N         137.5628  144.4136  155.7197 N.am    1  UNL1       -0.2972
     31 H         137.0518  145.1873  156.0506 H       1  UNL1        0.1500
     32 C         139.5052  148.4392  154.6671 C.ar    1  UNL1        0.0532
     33 C         138.6996  147.2859  155.1876 C.ar    1  UNL1        0.0395
     34 C         139.3132  146.0197  154.6678 C.ar    1  UNL1        0.1549
     35 N         140.4981  146.3904  153.8260 N.ar    1  UNL1       -0.1683
     36 N         140.6168  147.8857  153.8256 N.ar    1  UNL1       -0.2796
     37 H         141.3036  148.4115  153.3555 H       1  UNL1        0.1886
     38 C         138.3351  150.2915  156.0634 C.3     1  UNL1        0.0067
     39 C         139.2450  149.8910  154.9402 C.3     1  UNL1        0.0452
@<TRIPOS>BOND
     1    38    39    1
     2    39    32    1
     3    32    33   ar
     4    33    34   ar
     5    34    28    1
     6    28    29    2
     7    28    30   am
     8     1    30    1
     9     1     2    1
    10     2     3    1
    11     3     4    1
    12     3     5    1
    13     3     6    1
    14     6     7    1
    15     7     8   ar
    16     8     9   ar
    17     9    13    1
    18    13    14   ar
    19    14    15   ar
    20    15    16   ar
    21    16    17    1
    22    16    18   ar
    23    18    19   ar
    24    19    20    1
    25     9    10   ar
    26    10    21    1
    27    21    22   ar
    28    22    23   ar
    29    23    24   ar
    30    24    25    1
    31    24    26   ar
    32    26    27   ar
    33    10    11   ar
    34    11    12   ar
    35    34    35   ar
    36    35    36   ar
    37    36    32   ar
    38    12     1    1
    39    12     7   ar
    40    19    13   ar
    41    27    21   ar
    42    30    31    1
    43    36    37    1
@<TRIPOS>MOLECULE
*****
 39 43 0 0 0
SMALL
GASTEIGER

@<TRIPOS>ATOM
      1 C         140.9204  138.3317  156.3456 C.3     1  UNL1        0.1024
      2 C         141.7227  137.4839  155.4035 C.3     1  UNL1        0.0643
      3 C         142.8624  136.6585  155.9227 C.3     1  UNL1        0.1368
      4 C         144.0251  135.7110  155.9360 C.3     1  UNL1        0.0437
      5 C         142.9288  136.3071  154.4660 C.3     1  UNL1        0.0437
      6 O         143.1998  136.6807  157.3841 O.3     1  UNL1       -0.4676
      7 C         142.3976  137.5285  158.3262 C.ar    1  UNL1        0.2219
      8 N         142.7351  137.5508  159.7876 N.ar    1  UNL1       -0.2119
      9 C         141.9328  138.3985  160.7298 C.ar    1  UNL1        0.0851
     10 C         140.7931  139.2240  160.2106 C.ar    1  UNL1        0.0177
     11 C         140.4556  139.2018  158.7492 C.ar    1  UNL1        0.0034
     12 C         141.2579  138.3539  157.8070 C.ar    1  UNL1        0.0488
     13 C         142.2703  138.4208  162.1911 C.ar    1  UNL1        0.0284
     14 C         141.4950  137.5699  163.1530 C.ar    1  UNL1        0.0032
     15 C         141.8325  137.5922  164.6143 C.ar    1  UNL1        0.0115
     16 C         142.9452  138.4654  165.1139 C.ar    1  UNL1        0.0585
     17 CL        143.2827  138.4877  166.5753 Cl      1  UNL1       -0.0822
     18 C         143.7204  139.3162  164.1521 C.ar    1  UNL1        0.0228
     19 C         143.3830  139.2939  162.6907 C.ar    1  UNL1        0.0599
     20 CL        144.1582  140.1447  161.7289 Cl      1  UNL1       -0.0822
     21 C         139.9908  140.0718  161.1527 C.ar    1  UNL1        0.0015
     22 C         138.6948  139.5577  161.7058 C.ar    1  UNL1        0.0009
     23 C         137.8925  140.4055  162.6480 C.ar    1  UNL1        0.0114
     24 C         138.3863  141.7674  163.0371 C.ar    1  UNL1        0.0577
     25 CL        137.5841  142.6151  163.9792 Cl      1  UNL1       -0.0822
     26 C         139.6824  142.2815  162.4840 C.ar    1  UNL1        0.0114
     27 C         140.4846  141.4337  161.5418 C.ar    1  UNL1        0.0009
     28 C         138.4925  138.4955  155.4354 C.2     1  UNL1        0.2655
     29 O         138.3442  137.0083  155.5635 O.2     1  UNL1       -0.2684
     30 N         139.7806  139.1572  155.8264 N.am    1  UNL1       -0.2972
     31 H         139.8780  140.1332  155.7423 H       1  UNL1        0.1500
     32 C         136.0675  141.1651  154.0008 C.ar    1  UNL1        0.0532
     33 C         137.4411  140.7347  154.4227 C.ar    1  UNL1        0.0395
     34 C         137.3528  139.3209  154.9162 C.ar    1  UNL1        0.1549
     35 N         135.9246  138.8776  154.7993 N.ar    1  UNL1       -0.1683
     36 N         135.1302  140.0173  154.2336 N.ar    1  UNL1       -0.2796
     37 H         134.1634  140.0127  154.0477 H       1  UNL1        0.1886
     38 C         136.7569  143.5425  153.2117 C.3     1  UNL1        0.0067
     39 C         135.6963  142.5075  153.4440 C.3     1  UNL1        0.0452
@<TRIPOS>BOND
     1    38    39    1
     2    39    32    1
     3    32    33   ar
     4    33    34   ar
     5    34    28    1
     6    28    29    2
     7    28    30   am
     8     1    30    1
     9     1     2    1
    10     2     3    1
    11     3     4    1
    12     3     5    1
    13     3     6    1
    14     6     7    1
    15     7     8   ar
    16     8     9   ar
    17     9    13    1
    18    13    14   ar
    19    14    15   ar
    20    15    16   ar
    21    16    17    1
    22    16    18   ar
    23    18    19   ar
    24    19    20    1
    25     9    10   ar
    26    10    21    1
    27    21    22   ar
    28    22    23   ar
    29    23    24   ar
    30    24    25    1
    31    24    26   ar
    32    26    27   ar
    33    10    11   ar
    34    11    12   ar
    35    34    35   ar
    36    35    36   ar
    37    36    32   ar
    38    12     1    1
    39    12     7   ar
    40    19    13   ar
    41    27    21   ar
    42    30    31    1
    43    36    37    1
