@<TRIPOS>MOLECULE
*****
 39 43 0 0 0
SMALL
GASTEIGER

@<TRIPOS>ATOM
      1 C         138.1081  140.1800  162.7196 C.3     1  UNL1        0.0162
      2 C         137.8764  140.9833  163.9651 C.3     1  UNL1        0.0028
      3 C         137.7502  142.4757  163.8823 C.3     1  UNL1        0.0158
      4 C         137.8556  143.1648  162.5541 C.3     1  UNL1        0.0543
      5 C         138.0872  142.3615  161.3087 C.3     1  UNL1        0.0158
      6 C         138.2134  140.8691  161.3914 C.3     1  UNL1        0.0028
      7 C         138.2343  138.6876  162.8023 C.3     1  UNL1        0.0737
      8 N         137.6677  137.8255  161.7133 N.3     1  UNL1       -0.3206
      9 H         137.2361  138.4158  161.0022 H       1  UNL1        0.1189
     10 H         136.9658  137.1985  162.1065 H       1  UNL1        0.1189
     11 C         138.9271  138.0573  163.9739 C.3     1  UNL1        0.1244
     12 C         144.7189  139.2254  165.0182 C.3     1  UNL1        0.0312
     13 C         143.2710  138.9334  164.7571 C.ar    1  UNL1       -0.0157
     14 C         142.8563  138.2909  163.4667 C.ar    1  UNL1        0.0565
     15 C         141.4083  137.9989  163.2057 C.ar    1  UNL1        0.2607
     16 O         140.9936  137.3563  161.9152 O.2     1  UNL1       -0.2670
     17 N         140.3751  138.3494  164.2350 N.ar    1  UNL1       -0.2941
     18 C         140.7898  138.9919  165.5254 C.ar    1  UNL1        0.0644
     19 C         139.7565  139.3424  166.5547 C.ar    1  UNL1        0.0469
     20 C         140.1712  139.9849  167.8451 C.ar    1  UNL1        0.1416
     21 F         139.1380  140.3354  168.8745 F       1  UNL1       -0.2041
     22 C         141.6192  140.2769  168.1062 C.ar    1  UNL1        0.0297
     23 C         142.6524  139.9264  167.0769 C.ar    1  UNL1        0.0034
     24 C         142.2377  139.2839  165.7865 C.ar    1  UNL1        0.0122
     25 N         137.7293  144.6572  162.4714 N.3     1  UNL1       -0.2935
     26 H         137.0697  144.9375  163.1972 H       1  UNL1        0.1236
     27 C         138.9439  145.5227  162.6324 C.3     1  UNL1        0.1152
     28 C         140.3101  144.9036  162.6408 C.ar    1  UNL1        0.0765
     29 C         141.0293  144.6912  163.9400 C.ar    1  UNL1        0.0193
     30 C         142.3955  144.0721  163.9485 C.ar    1  UNL1        0.0411
     31 C         143.0427  143.6655  162.6577 C.ar    1  UNL1        0.1708
     32 C         142.3236  143.8779  161.3586 C.ar    1  UNL1        0.1682
     33 N         140.9573  144.4970  161.3502 N.ar    1  UNL1       -0.2304
     34 N         142.9707  143.4713  160.0680 N.am    1  UNL1       -0.2639
     35 C         144.3370  142.8522  160.0765 C.2     1  UNL1        0.2718
     36 O         144.9841  142.4456  158.7857 O.2     1  UNL1       -0.2707
     37 C         145.0561  142.6398  161.3756 C.3     1  UNL1        0.2898
     38 O         144.4090  143.0464  162.6662 O.3     1  UNL1       -0.4628
     39 H         142.4987  143.6107  159.2153 H       1  UNL1        0.1565
@<TRIPOS>BOND
     1    12    13    1
     2    13    14   ar
     3    14    15   ar
     4    15    16    2
     5    15    17   ar
     6    17    11    1
     7    11     7    1
     8     7     8    1
     9     7     1    1
    10     1     2    1
    11     2     3    1
    12     3     4    1
    13     4    25    1
    14    25    27    1
    15    27    28    1
    16    28    29   ar
    17    29    30   ar
    18    30    31   ar
    19    31    32   ar
    20    32    33   ar
    21    32    34    1
    22    34    35   am
    23    35    36    2
    24    35    37    1
    25    37    38    1
    26     4     5    1
    27     5     6    1
    28    17    18   ar
    29    18    19   ar
    30    19    20   ar
    31    20    21    1
    32    20    22   ar
    33    22    23   ar
    34    23    24   ar
    35    24    13   ar
    36     6     1    1
    37    24    18   ar
    38    33    28   ar
    39    38    31    1
    40     8     9    1
    41     8    10    1
    42    25    26    1
    43    34    39    1
@<TRIPOS>MOLECULE
*****
 39 43 0 0 0
SMALL
GASTEIGER

@<TRIPOS>ATOM
      1 C         143.9149  142.7562  163.3975 C.3     1  UNL1        0.0162
      2 C         143.4191  143.6373  164.5056 C.3     1  UNL1        0.0028
      3 C         142.4326  144.7284  164.2120 C.3     1  UNL1        0.0158
      4 C         141.9418  144.9384  162.8101 C.3     1  UNL1        0.0543
      5 C         142.4375  144.0573  161.7021 C.3     1  UNL1        0.0158
      6 C         143.4240  142.9662  161.9957 C.3     1  UNL1        0.0028
      7 C         144.9014  141.6651  163.6911 C.3     1  UNL1        0.0737
      8 N         146.2969  141.7495  163.1473 N.3     1  UNL1       -0.3206
      9 H         146.3993  142.6075  162.6054 H       1  UNL1        0.1189
     10 H         146.4771  140.9447  162.5471 H       1  UNL1        0.1189
     11 C         144.4926  140.4898  164.5286 C.3     1  UNL1        0.1244
     12 C         139.2361  137.7758  163.5267 C.3     1  UNL1        0.0312
     13 C         140.5502  138.4543  163.7772 C.ar    1  UNL1       -0.0157
     14 C         141.7181  138.1832  162.8758 C.ar    1  UNL1        0.0565
     15 C         143.0322  138.8617  163.1262 C.ar    1  UNL1        0.2607
     16 O         144.2001  138.5905  162.2248 O.2     1  UNL1       -0.2670
     17 N         143.1785  139.8113  164.2781 N.ar    1  UNL1       -0.2941
     18 C         142.0106  140.0824  165.1796 C.ar    1  UNL1        0.0644
     19 C         142.1568  141.0320  166.3314 C.ar    1  UNL1        0.0469
     20 C         140.9890  141.3032  167.2328 C.ar    1  UNL1        0.1416
     21 F         141.1352  142.2528  168.3847 F       1  UNL1       -0.2041
     22 C         139.6748  140.6247  166.9823 C.ar    1  UNL1        0.0297
     23 C         139.5286  139.6751  165.8305 C.ar    1  UNL1        0.0034
     24 C         140.6964  139.4039  164.9291 C.ar    1  UNL1        0.0122
     25 N         140.9552  146.0295  162.5165 N.3     1  UNL1       -0.2935
     26 H         141.1335  146.3383  161.5608 H       1  UNL1        0.1236
     27 C         139.4835  145.7566  162.6159 C.3     1  UNL1        0.1152
     28 C         138.9621  144.3669  162.3996 C.ar    1  UNL1        0.0765
     29 C         138.4270  143.5779  163.5577 C.ar    1  UNL1        0.0193
     30 C         137.9056  142.1881  163.3414 C.ar    1  UNL1        0.0411
     31 C         137.9193  141.5874  161.9669 C.ar    1  UNL1        0.1708
     32 C         138.4544  142.3764  160.8089 C.ar    1  UNL1        0.1682
     33 N         138.9758  143.7662  161.0252 N.ar    1  UNL1       -0.2304
     34 N         138.4681  141.7757  159.4345 N.am    1  UNL1       -0.2639
     35 C         137.9467  140.3860  159.2182 C.2     1  UNL1        0.2718
     36 O         137.9605  139.7853  157.8438 O.2     1  UNL1       -0.2707
     37 C         137.4116  139.5970  160.3762 C.3     1  UNL1        0.2898
     38 O         137.3979  140.1977  161.7506 O.3     1  UNL1       -0.4628
     39 H         138.8194  142.2936  158.6745 H       1  UNL1        0.1565
@<TRIPOS>BOND
     1    12    13    1
     2    13    14   ar
     3    14    15   ar
     4    15    16    2
     5    15    17   ar
     6    17    11    1
     7    11     7    1
     8     7     8    1
     9     7     1    1
    10     1     2    1
    11     2     3    1
    12     3     4    1
    13     4    25    1
    14    25    27    1
    15    27    28    1
    16    28    29   ar
    17    29    30   ar
    18    30    31   ar
    19    31    32   ar
    20    32    33   ar
    21    32    34    1
    22    34    35   am
    23    35    36    2
    24    35    37    1
    25    37    38    1
    26     4     5    1
    27     5     6    1
    28    17    18   ar
    29    18    19   ar
    30    19    20   ar
    31    20    21    1
    32    20    22   ar
    33    22    23   ar
    34    23    24   ar
    35    24    13   ar
    36     6     1    1
    37    24    18   ar
    38    33    28   ar
    39    38    31    1
    40     8     9    1
    41     8    10    1
    42    25    26    1
    43    34    39    1
@<TRIPOS>MOLECULE
*****
 39 43 0 0 0
SMALL
GASTEIGER

@<TRIPOS>ATOM
      1 C         142.1581  138.4134  163.9824 C.3     1  UNL1        0.0162
      2 C         143.2545  138.6565  164.9768 C.3     1  UNL1        0.0028
      3 C         144.4146  139.5355  164.6141 C.3     1  UNL1        0.0158
      4 C         144.4782  140.1715  163.2570 C.3     1  UNL1        0.0543
      5 C         143.3818  139.9283  162.2627 C.3     1  UNL1        0.0158
      6 C         142.2217  139.0493  162.6254 C.3     1  UNL1        0.0028
      7 C         140.9980  137.5344  164.3451 C.3     1  UNL1        0.0737
      8 N         140.9728  136.1030  163.8971 N.3     1  UNL1       -0.3206
      9 H         141.8165  135.8995  163.3613 H       1  UNL1        0.1189
     10 H         140.1522  135.9441  163.3125 H       1  UNL1        0.1189
     11 C         139.8632  138.0866  165.1557 C.3     1  UNL1        0.1244
     12 C         138.5168  143.9253  164.8443 C.3     1  UNL1        0.0312
     13 C         138.8534  142.4656  164.9222 C.ar    1  UNL1       -0.0157
     14 C         138.3098  141.5149  163.8972 C.ar    1  UNL1        0.0565
     15 C         138.6464  140.0552  163.9751 C.ar    1  UNL1        0.2607
     16 O         138.1027  139.1045  162.9500 O.2     1  UNL1       -0.2670
     17 N         139.5266  139.5463  165.0779 N.ar    1  UNL1       -0.2941
     18 C         140.0702  140.4970  166.1029 C.ar    1  UNL1        0.0644
     19 C         140.9504  139.9881  167.2057 C.ar    1  UNL1        0.0469
     20 C         141.4940  140.9388  168.2306 C.ar    1  UNL1        0.1416
     21 F         142.3742  140.4299  169.3335 F       1  UNL1       -0.2041
     22 C         141.1574  142.3985  168.1528 C.ar    1  UNL1        0.0297
     23 C         140.2772  142.9074  167.0500 C.ar    1  UNL1        0.0034
     24 C         139.7336  141.9567  166.0250 C.ar    1  UNL1        0.0122
     25 N         145.6383  141.0505  162.8944 N.3     1  UNL1       -0.2935
     26 H         145.7600  140.9756  161.8844 H       1  UNL1        0.1236
     27 C         145.5999  142.5146  163.2185 C.3     1  UNL1        0.1152
     28 C         144.3157  143.2785  163.0868 C.ar    1  UNL1        0.0765
     29 C         143.5557  143.6851  164.3144 C.ar    1  UNL1        0.0193
     30 C         142.2715  144.4490  164.1828 C.ar    1  UNL1        0.0411
     31 C         141.7474  144.8063  162.8234 C.ar    1  UNL1        0.1708
     32 C         142.5075  144.3998  161.5959 C.ar    1  UNL1        0.1682
     33 N         143.7916  143.6359  161.7276 N.ar    1  UNL1       -0.2304
     34 N         141.9834  144.7571  160.2366 N.am    1  UNL1       -0.2639
     35 C         140.6992  145.5210  160.1050 C.2     1  UNL1        0.2718
     36 O         140.1751  145.8784  158.7456 O.2     1  UNL1       -0.2707
     37 C         139.9391  145.9276  161.3325 C.3     1  UNL1        0.2898
     38 O         140.4632  145.5702  162.6918 O.3     1  UNL1       -0.4628
     39 H         142.4822  144.4903  159.4309 H       1  UNL1        0.1565
@<TRIPOS>BOND
     1    12    13    1
     2    13    14   ar
     3    14    15   ar
     4    15    16    2
     5    15    17   ar
     6    17    11    1
     7    11     7    1
     8     7     8    1
     9     7     1    1
    10     1     2    1
    11     2     3    1
    12     3     4    1
    13     4    25    1
    14    25    27    1
    15    27    28    1
    16    28    29   ar
    17    29    30   ar
    18    30    31   ar
    19    31    32   ar
    20    32    33   ar
    21    32    34    1
    22    34    35   am
    23    35    36    2
    24    35    37    1
    25    37    38    1
    26     4     5    1
    27     5     6    1
    28    17    18   ar
    29    18    19   ar
    30    19    20   ar
    31    20    21    1
    32    20    22   ar
    33    22    23   ar
    34    23    24   ar
    35    24    13   ar
    36     6     1    1
    37    24    18   ar
    38    33    28   ar
    39    38    31    1
    40     8     9    1
    41     8    10    1
    42    25    26    1
    43    34    39    1
@<TRIPOS>MOLECULE
*****
 39 43 0 0 0
SMALL
GASTEIGER

@<TRIPOS>ATOM
      1 C         138.2922  140.2598  164.3618 C.3     1  UNL1        0.0162
      2 C         138.6792  141.4541  165.1829 C.3     1  UNL1        0.0028
      3 C         138.4859  142.8364  164.6336 C.3     1  UNL1        0.0158
      4 C         137.9055  143.0245  163.2632 C.3     1  UNL1        0.0543
      5 C         137.5186  141.8303  162.4422 C.3     1  UNL1        0.0158
      6 C         137.7119  140.4480  162.9915 C.3     1  UNL1        0.0028
      7 C         138.4855  138.8775  164.9111 C.3     1  UNL1        0.0737
      8 N         138.0683  138.5642  166.3175 N.3     1  UNL1       -0.3206
      9 H         137.6762  139.4005  166.7502 H       1  UNL1        0.1189
     10 H         138.8799  138.2536  166.8517 H       1  UNL1        0.1189
     11 C         139.0960  137.8085  164.0541 C.3     1  UNL1        0.1244
     12 C         143.9417  139.0287  160.7330 C.3     1  UNL1        0.0312
     13 C         142.7303  138.7236  161.5633 C.ar    1  UNL1       -0.0157
     14 C         141.4216  138.4184  160.8967 C.ar    1  UNL1        0.0565
     15 C         140.2102  138.1134  161.7270 C.ar    1  UNL1        0.2607
     16 O         138.9015  137.8081  161.0604 O.2     1  UNL1       -0.2670
     17 N         140.3074  138.1135  163.2238 N.ar    1  UNL1       -0.2941
     18 C         141.6161  138.4188  163.8904 C.ar    1  UNL1        0.0644
     19 C         141.7133  138.4190  165.3873 C.ar    1  UNL1        0.0469
     20 C         143.0219  138.7242  166.0538 C.ar    1  UNL1        0.1416
     21 F         143.1192  138.7244  167.5507 F       1  UNL1       -0.2041
     22 C         144.2333  139.0292  165.2235 C.ar    1  UNL1        0.0297
     23 C         144.1361  139.0291  163.7267 C.ar    1  UNL1        0.0034
     24 C         142.8275  138.7238  163.0602 C.ar    1  UNL1        0.0122
     25 N         137.7122  144.4069  162.7139 N.3     1  UNL1       -0.2935
     26 H         137.0840  144.8929  163.3539 H       1  UNL1        0.1236
     27 C         138.8966  145.3035  162.5053 C.3     1  UNL1        0.1152
     28 C         140.1147  144.7851  161.8000 C.ar    1  UNL1        0.0765
     29 C         140.2281  144.9095  160.3094 C.ar    1  UNL1        0.0193
     30 C         141.4462  144.3911  159.6041 C.ar    1  UNL1        0.0411
     31 C         142.5509  143.7483  160.3894 C.ar    1  UNL1        0.1708
     32 C         142.4375  143.6240  161.8799 C.ar    1  UNL1        0.1682
     33 N         141.2194  144.1424  162.5852 N.ar    1  UNL1       -0.2304
     34 N         143.5422  142.9812  162.6650 N.am    1  UNL1       -0.2639
     35 C         144.7603  142.4629  161.9597 C.2     1  UNL1        0.2718
     36 O         145.8650  141.8201  162.7450 O.2     1  UNL1       -0.2707
     37 C         144.8737  142.5872  160.4692 C.3     1  UNL1        0.2898
     38 O         143.7691  143.2300  159.6841 O.3     1  UNL1       -0.4628
     39 H         143.4677  142.8996  163.6433 H       1  UNL1        0.1565
@<TRIPOS>BOND
     1    12    13    1
     2    13    14   ar
     3    14    15   ar
     4    15    16    2
     5    15    17   ar
     6    17    11    1
     7    11     7    1
     8     7     8    1
     9     7     1    1
    10     1     2    1
    11     2     3    1
    12     3     4    1
    13     4    25    1
    14    25    27    1
    15    27    28    1
    16    28    29   ar
    17    29    30   ar
    18    30    31   ar
    19    31    32   ar
    20    32    33   ar
    21    32    34    1
    22    34    35   am
    23    35    36    2
    24    35    37    1
    25    37    38    1
    26     4     5    1
    27     5     6    1
    28    17    18   ar
    29    18    19   ar
    30    19    20   ar
    31    20    21    1
    32    20    22   ar
    33    22    23   ar
    34    23    24   ar
    35    24    13   ar
    36     6     1    1
    37    24    18   ar
    38    33    28   ar
    39    38    31    1
    40     8     9    1
    41     8    10    1
    42    25    26    1
    43    34    39    1
@<TRIPOS>MOLECULE
*****
 39 43 0 0 0
SMALL
GASTEIGER

@<TRIPOS>ATOM
      1 C         140.7011  139.5582  160.4563 C.3     1  UNL1        0.0162
      2 C         141.5141  140.8187  160.4736 C.3     1  UNL1        0.0028
      3 C         142.8654  140.8307  161.1246 C.3     1  UNL1        0.0158
      4 C         143.4037  139.5823  161.7583 C.3     1  UNL1        0.0543
      5 C         142.5908  138.3218  161.7411 C.3     1  UNL1        0.0158
      6 C         141.2395  138.3098  161.0901 C.3     1  UNL1        0.0028
      7 C         139.3498  139.5461  159.8053 C.3     1  UNL1        0.0737
      8 N         139.2098  139.1136  158.3758 N.3     1  UNL1       -0.3206
      9 H         140.1266  138.8645  158.0046 H       1  UNL1        0.1189
     10 H         138.8168  139.8778  157.8263 H       1  UNL1        0.1189
     11 C         138.1385  139.9665  160.5838 C.3     1  UNL1        0.1244
     12 C         138.6569  144.0061  164.9898 C.3     1  UNL1        0.0312
     13 C         138.5273  142.9962  163.8883 C.ar    1  UNL1       -0.0157
     14 C         138.3614  143.4517  162.4688 C.ar    1  UNL1        0.0565
     15 C         138.2318  142.4418  161.3673 C.ar    1  UNL1        0.2607
     16 O         138.0659  142.8974  159.9478 O.2     1  UNL1       -0.2670
     17 N         138.2681  140.9764  161.6853 N.ar    1  UNL1       -0.2941
     18 C         138.4340  140.5208  163.1048 C.ar    1  UNL1        0.0644
     19 C         138.4703  139.0553  163.4227 C.ar    1  UNL1        0.0469
     20 C         138.6362  138.5998  164.8422 C.ar    1  UNL1        0.1416
     21 F         138.6726  137.1343  165.1602 F       1  UNL1       -0.2041
     22 C         138.7658  139.6097  165.9437 C.ar    1  UNL1        0.0297
     23 C         138.7295  141.0751  165.6258 C.ar    1  UNL1        0.0034
     24 C         138.5636  141.5307  164.2063 C.ar    1  UNL1        0.0122
     25 N         144.7551  139.5943  162.4093 N.3     1  UNL1       -0.2935
     26 H         145.4173  139.9242  161.7072 H       1  UNL1        0.1236
     27 C         144.9861  140.4165  163.6426 C.3     1  UNL1        0.1152
     28 C         144.0729  140.2702  164.8235 C.ar    1  UNL1        0.0765
     29 C         143.8661  138.9226  165.4492 C.ar    1  UNL1        0.0193
     30 C         142.9529  138.7763  166.6302 C.ar    1  UNL1        0.0411
     31 C         142.2465  139.9775  167.1854 C.ar    1  UNL1        0.1708
     32 C         142.4533  141.3249  166.5596 C.ar    1  UNL1        0.1682
     33 N         143.3665  141.4713  165.3787 N.ar    1  UNL1       -0.2304
     34 N         141.7469  142.5261  167.1148 N.am    1  UNL1       -0.2639
     35 C         140.8337  142.3797  168.2958 C.2     1  UNL1        0.2718
     36 O         140.1273  143.5809  168.8510 O.2     1  UNL1       -0.2707
     37 C         140.6269  141.0323  168.9215 C.3     1  UNL1        0.2898
     38 O         141.3332  139.8312  168.3663 O.3     1  UNL1       -0.4628
     39 H         141.8827  143.4104  166.7042 H       1  UNL1        0.1565
@<TRIPOS>BOND
     1    12    13    1
     2    13    14   ar
     3    14    15   ar
     4    15    16    2
     5    15    17   ar
     6    17    11    1
     7    11     7    1
     8     7     8    1
     9     7     1    1
    10     1     2    1
    11     2     3    1
    12     3     4    1
    13     4    25    1
    14    25    27    1
    15    27    28    1
    16    28    29   ar
    17    29    30   ar
    18    30    31   ar
    19    31    32   ar
    20    32    33   ar
    21    32    34    1
    22    34    35   am
    23    35    36    2
    24    35    37    1
    25    37    38    1
    26     4     5    1
    27     5     6    1
    28    17    18   ar
    29    18    19   ar
    30    19    20   ar
    31    20    21    1
    32    20    22   ar
    33    22    23   ar
    34    23    24   ar
    35    24    13   ar
    36     6     1    1
    37    24    18   ar
    38    33    28   ar
    39    38    31    1
    40     8     9    1
    41     8    10    1
    42    25    26    1
    43    34    39    1
@<TRIPOS>MOLECULE
*****
 39 43 0 0 0
SMALL
GASTEIGER

@<TRIPOS>ATOM
      1 C         142.0053  138.5458  165.1678 C.3     1  UNL1        0.0162
      2 C         140.5412  138.3000  165.3825 C.3     1  UNL1        0.0028
      3 C         139.6546  137.9841  164.2146 C.3     1  UNL1        0.0158
      4 C         140.2321  137.9139  162.8319 C.3     1  UNL1        0.0543
      5 C         141.6961  138.1598  162.6173 C.3     1  UNL1        0.0158
      6 C         142.5827  138.4757  163.7852 C.3     1  UNL1        0.0028
      7 C         142.8920  138.8617  166.3357 C.3     1  UNL1        0.0737
      8 N         143.9226  137.8688  166.7852 N.3     1  UNL1       -0.3206
      9 H         143.8813  137.0424  166.1888 H       1  UNL1        0.1189
     10 H         143.7374  137.6003  167.7516 H       1  UNL1        0.1189
     11 C         142.7480  140.1705  167.0542 C.3     1  UNL1        0.1244
     12 C         139.9556  144.7644  164.3898 C.3     1  UNL1        0.0312
     13 C         140.6537  143.6159  165.0559 C.ar    1  UNL1       -0.0157
     14 C         139.9687  142.8563  166.1531 C.ar    1  UNL1        0.0565
     15 C         140.6668  141.7079  166.8192 C.ar    1  UNL1        0.2607
     16 O         139.9818  140.9482  167.9164 O.2     1  UNL1       -0.2670
     17 N         142.0499  141.3190  166.3881 N.ar    1  UNL1       -0.2941
     18 C         142.7349  142.0786  165.2909 C.ar    1  UNL1        0.0644
     19 C         144.1180  141.6898  164.8599 C.ar    1  UNL1        0.0469
     20 C         144.8030  142.4494  163.7627 C.ar    1  UNL1        0.1416
     21 F         146.1861  142.0605  163.3316 F       1  UNL1       -0.2041
     22 C         144.1049  143.5978  163.0966 C.ar    1  UNL1        0.0297
     23 C         142.7218  143.9867  163.5277 C.ar    1  UNL1        0.0034
     24 C         142.0368  143.2271  164.6248 C.ar    1  UNL1        0.0122
     25 N         139.3454  137.5980  161.6640 N.3     1  UNL1       -0.2935
     26 H         138.8862  136.7118  161.8742 H       1  UNL1        0.1236
     27 C         138.2672  138.5592  161.2593 C.3     1  UNL1        0.1152
     28 C         138.5512  140.0315  161.2199 C.ar    1  UNL1        0.0765
     29 C         137.6853  140.9832  161.9911 C.ar    1  UNL1        0.0193
     30 C         137.9692  142.4556  161.9518 C.ar    1  UNL1        0.0411
     31 C         139.1190  142.9763  161.1412 C.ar    1  UNL1        0.1708
     32 C         139.9848  142.0246  160.3701 C.ar    1  UNL1        0.1682
     33 N         139.7009  140.5523  160.4094 N.ar    1  UNL1       -0.2304
     34 N         141.1345  142.5453  159.5596 N.am    1  UNL1       -0.2639
     35 C         141.4184  144.0177  159.5202 C.2     1  UNL1        0.2718
     36 O         142.5682  144.5384  158.7096 O.2     1  UNL1       -0.2707
     37 C         140.5526  144.9693  160.2914 C.3     1  UNL1        0.2898
     38 O         139.4029  144.4486  161.1019 O.3     1  UNL1       -0.4628
     39 H         141.7028  141.9207  159.0534 H       1  UNL1        0.1565
@<TRIPOS>BOND
     1    12    13    1
     2    13    14   ar
     3    14    15   ar
     4    15    16    2
     5    15    17   ar
     6    17    11    1
     7    11     7    1
     8     7     8    1
     9     7     1    1
    10     1     2    1
    11     2     3    1
    12     3     4    1
    13     4    25    1
    14    25    27    1
    15    27    28    1
    16    28    29   ar
    17    29    30   ar
    18    30    31   ar
    19    31    32   ar
    20    32    33   ar
    21    32    34    1
    22    34    35   am
    23    35    36    2
    24    35    37    1
    25    37    38    1
    26     4     5    1
    27     5     6    1
    28    17    18   ar
    29    18    19   ar
    30    19    20   ar
    31    20    21    1
    32    20    22   ar
    33    22    23   ar
    34    23    24   ar
    35    24    13   ar
    36     6     1    1
    37    24    18   ar
    38    33    28   ar
    39    38    31    1
    40     8     9    1
    41     8    10    1
    42    25    26    1
    43    34    39    1
@<TRIPOS>MOLECULE
*****
 39 43 0 0 0
SMALL
GASTEIGER

@<TRIPOS>ATOM
      1 C         141.3138  138.5137  161.7115 C.3     1  UNL1        0.0162
      2 C         142.0174  138.1683  162.9906 C.3     1  UNL1        0.0028
      3 C         141.2253  137.7389  164.1899 C.3     1  UNL1        0.0158
      4 C         139.7297  137.6550  164.1101 C.3     1  UNL1        0.0543
      5 C         139.0263  138.0004  162.8312 C.3     1  UNL1        0.0158
      6 C         139.8183  138.4297  161.6319 C.3     1  UNL1        0.0028
      7 C         142.1059  138.9430  160.5122 C.3     1  UNL1        0.0737
      8 N         142.5795  137.9214  159.5213 N.3     1  UNL1       -0.3206
      9 H         142.2758  136.9938  159.8177 H       1  UNL1        0.1189
     10 H         143.5979  137.9451  159.4689 H       1  UNL1        0.1189
     11 C         142.4243  140.3939  160.3039 C.3     1  UNL1        0.1244
     12 C         140.2348  144.5172  164.0728 C.3     1  UNL1        0.0312
     13 C         140.7822  143.4863  163.1306 C.ar    1  UNL1       -0.0157
     14 C         139.9615  143.0274  161.9620 C.ar    1  UNL1        0.0565
     15 C         140.5089  141.9966  161.0197 C.ar    1  UNL1        0.2607
     16 O         139.6881  141.5376  159.8510 O.2     1  UNL1       -0.2670
     17 N         141.8769  141.4247  161.2462 N.ar    1  UNL1       -0.2941
     18 C         142.6977  141.8837  162.4149 C.ar    1  UNL1        0.0644
     19 C         144.0658  141.3118  162.6413 C.ar    1  UNL1        0.0469
     20 C         144.8865  141.7707  163.8099 C.ar    1  UNL1        0.1416
     21 F         146.2546  141.1989  164.0364 F       1  UNL1       -0.2041
     22 C         144.3391  142.8016  164.7522 C.ar    1  UNL1        0.0297
     23 C         142.9710  143.3734  164.5257 C.ar    1  UNL1        0.0034
     24 C         142.1503  142.9145  163.3571 C.ar    1  UNL1        0.0122
     25 N         138.9377  137.2256  165.3094 N.3     1  UNL1       -0.2935
     26 H         139.5959  136.7930  165.9575 H       1  UNL1        0.1236
     27 C         138.1583  138.2382  166.0953 C.3     1  UNL1        0.1152
     28 C         138.8568  139.4244  166.6912 C.ar    1  UNL1        0.0765
     29 C         139.4793  140.4554  165.7970 C.ar    1  UNL1        0.0193
     30 C         140.1778  141.6416  166.3928 C.ar    1  UNL1        0.0411
     31 C         140.2538  141.7968  167.8829 C.ar    1  UNL1        0.1708
     32 C         139.6313  140.7658  168.7770 C.ar    1  UNL1        0.1682
     33 N         138.9328  139.5796  168.1811 N.ar    1  UNL1       -0.2304
     34 N         139.7073  140.9210  170.2670 N.am    1  UNL1       -0.2639
     35 C         140.4057  142.1072  170.8629 C.2     1  UNL1        0.2718
     36 O         140.4817  142.2623  172.3529 O.2     1  UNL1       -0.2707
     37 C         141.0282  143.1382  169.9688 C.3     1  UNL1        0.2898
     38 O         140.9522  142.9830  168.4788 O.3     1  UNL1       -0.4628
     39 H         139.2987  140.2443  170.8538 H       1  UNL1        0.1565
@<TRIPOS>BOND
     1    12    13    1
     2    13    14   ar
     3    14    15   ar
     4    15    16    2
     5    15    17   ar
     6    17    11    1
     7    11     7    1
     8     7     8    1
     9     7     1    1
    10     1     2    1
    11     2     3    1
    12     3     4    1
    13     4    25    1
    14    25    27    1
    15    27    28    1
    16    28    29   ar
    17    29    30   ar
    18    30    31   ar
    19    31    32   ar
    20    32    33   ar
    21    32    34    1
    22    34    35   am
    23    35    36    2
    24    35    37    1
    25    37    38    1
    26     4     5    1
    27     5     6    1
    28    17    18   ar
    29    18    19   ar
    30    19    20   ar
    31    20    21    1
    32    20    22   ar
    33    22    23   ar
    34    23    24   ar
    35    24    13   ar
    36     6     1    1
    37    24    18   ar
    38    33    28   ar
    39    38    31    1
    40     8     9    1
    41     8    10    1
    42    25    26    1
    43    34    39    1
@<TRIPOS>MOLECULE
*****
 39 43 0 0 0
SMALL
GASTEIGER

@<TRIPOS>ATOM
      1 C         140.7878  144.7530  162.2014 C.3     1  UNL1        0.0162
      2 C         141.7134  145.3081  163.2432 C.3     1  UNL1        0.0028
      3 C         143.1246  144.8081  163.3355 C.3     1  UNL1        0.0158
      4 C         143.6101  143.7530  162.3862 C.3     1  UNL1        0.0543
      5 C         142.6845  143.1980  161.3445 C.3     1  UNL1        0.0158
      6 C         141.2733  143.6980  161.2521 C.3     1  UNL1        0.0028
      7 C         139.3766  145.2530  162.1091 C.3     1  UNL1        0.0737
      8 N         139.0722  146.5007  161.3339 N.3     1  UNL1       -0.3206
      9 H         139.9352  146.8751  160.9397 H       1  UNL1        0.1189
     10 H         138.6536  147.1931  161.9549 H       1  UNL1        0.1189
     11 C         138.2698  144.5055  162.7918 C.3     1  UNL1        0.1244
     12 C         139.5009  139.5713  165.9759 C.3     1  UNL1        0.0312
     13 C         139.1931  140.8048  165.1799 C.ar    1  UNL1       -0.0157
     14 C         139.3296  142.1585  165.8115 C.ar    1  UNL1        0.0565
     15 C         139.0219  143.3920  165.0155 C.ar    1  UNL1        0.2607
     16 O         139.1584  144.7457  165.6471 O.2     1  UNL1       -0.2670
     17 N         138.5776  143.2719  163.5878 N.ar    1  UNL1       -0.2941
     18 C         138.4410  141.9182  162.9562 C.ar    1  UNL1        0.0644
     19 C         137.9968  141.7981  161.5286 C.ar    1  UNL1        0.0469
     20 C         137.8603  140.4445  160.8970 C.ar    1  UNL1        0.1416
     21 F         137.4159  140.3243  159.4693 F       1  UNL1       -0.2041
     22 C         138.1680  139.2109  161.6930 C.ar    1  UNL1        0.0297
     23 C         138.6123  139.3310  163.1206 C.ar    1  UNL1        0.0034
     24 C         138.7488  140.6847  163.7522 C.ar    1  UNL1        0.0122
     25 N         145.0213  143.2530  162.4785 N.3     1  UNL1       -0.2935
     26 H         145.4764  143.7902  163.2166 H       1  UNL1        0.1236
     27 C         145.2866  141.8057  162.7700 C.3     1  UNL1        0.1152
     28 C         144.6207  141.1417  163.9386 C.ar    1  UNL1        0.0765
     29 C         144.5555  139.6449  164.0137 C.ar    1  UNL1        0.0193
     30 C         143.8895  138.9809  165.1823 C.ar    1  UNL1        0.0411
     31 C         143.2887  139.8137  166.2758 C.ar    1  UNL1        0.1708
     32 C         143.3539  141.3103  166.2006 C.ar    1  UNL1        0.1682
     33 N         144.0199  141.9743  165.0321 N.ar    1  UNL1       -0.2304
     34 N         142.7531  142.1430  167.2941 N.am    1  UNL1       -0.2639
     35 C         142.0872  141.4790  168.4627 C.2     1  UNL1        0.2718
     36 O         141.4864  142.3117  169.5562 O.2     1  UNL1       -0.2707
     37 C         142.0219  139.9823  168.5378 C.3     1  UNL1        0.2898
     38 O         142.6227  139.1497  167.4443 O.3     1  UNL1       -0.4628
     39 H         142.7959  143.1253  167.2448 H       1  UNL1        0.1565
@<TRIPOS>BOND
     1    12    13    1
     2    13    14   ar
     3    14    15   ar
     4    15    16    2
     5    15    17   ar
     6    17    11    1
     7    11     7    1
     8     7     8    1
     9     7     1    1
    10     1     2    1
    11     2     3    1
    12     3     4    1
    13     4    25    1
    14    25    27    1
    15    27    28    1
    16    28    29   ar
    17    29    30   ar
    18    30    31   ar
    19    31    32   ar
    20    32    33   ar
    21    32    34    1
    22    34    35   am
    23    35    36    2
    24    35    37    1
    25    37    38    1
    26     4     5    1
    27     5     6    1
    28    17    18   ar
    29    18    19   ar
    30    19    20   ar
    31    20    21    1
    32    20    22   ar
    33    22    23   ar
    34    23    24   ar
    35    24    13   ar
    36     6     1    1
    37    24    18   ar
    38    33    28   ar
    39    38    31    1
    40     8     9    1
    41     8    10    1
    42    25    26    1
    43    34    39    1
@<TRIPOS>MOLECULE
*****
 39 43 0 0 0
SMALL
GASTEIGER

@<TRIPOS>ATOM
      1 C         140.9322  144.8353  162.1281 C.3     1  UNL1        0.0162
      2 C         141.8588  145.2524  163.2315 C.3     1  UNL1        0.0028
      3 C         143.2450  144.6836  163.3020 C.3     1  UNL1        0.0158
      4 C         143.7046  143.6977  162.2690 C.3     1  UNL1        0.0543
      5 C         142.7779  143.2807  161.1657 C.3     1  UNL1        0.0158
      6 C         141.3917  143.8495  161.0952 C.3     1  UNL1        0.0028
      7 C         139.5460  145.4041  162.0577 C.3     1  UNL1        0.0737
      8 N         139.3074  146.7151  161.3687 N.3     1  UNL1       -0.3206
      9 H         140.1911  147.0763  161.0098 H       1  UNL1        0.1189
     10 H         138.9123  147.3811  162.0326 H       1  UNL1        0.1189
     11 C         138.3985  144.6620  162.6761 C.3     1  UNL1        0.1244
     12 C         138.5540  138.6762  163.0584 C.3     1  UNL1        0.0312
     13 C         138.5151  140.1727  162.9628 C.ar    1  UNL1       -0.0157
     14 C         138.0730  140.8317  161.6900 C.ar    1  UNL1        0.0565
     15 C         138.0342  142.3281  161.5944 C.ar    1  UNL1        0.2607
     16 O         137.5921  142.9871  160.3214 O.2     1  UNL1       -0.2670
     17 N         138.4374  143.1656  162.7717 N.ar    1  UNL1       -0.2941
     18 C         138.8794  142.5066  164.0446 C.ar    1  UNL1        0.0644
     19 C         139.2826  143.3440  165.2219 C.ar    1  UNL1        0.0469
     20 C         139.7247  142.6851  166.4948 C.ar    1  UNL1        0.1416
     21 F         140.1279  143.5225  167.6722 F       1  UNL1       -0.2041
     22 C         139.7635  141.1886  166.5904 C.ar    1  UNL1        0.0297
     23 C         139.3604  140.3512  165.4131 C.ar    1  UNL1        0.0034
     24 C         138.9183  141.0101  164.1402 C.ar    1  UNL1        0.0122
     25 N         145.0907  143.1289  162.3395 N.3     1  UNL1       -0.2935
     26 H         145.5866  143.6505  163.0623 H       1  UNL1        0.1236
     27 C         145.2896  141.6733  162.6422 C.3     1  UNL1        0.1152
     28 C         144.6324  141.0604  163.8432 C.ar    1  UNL1        0.0765
     29 C         144.3310  139.5911  163.8652 C.ar    1  UNL1        0.0193
     30 C         143.6738  138.9783  165.0662 C.ar    1  UNL1        0.0411
     31 C         143.3180  139.8347  166.2453 C.ar    1  UNL1        0.1708
     32 C         143.6195  141.3039  166.2233 C.ar    1  UNL1        0.1682
     33 N         144.2767  141.9168  165.0222 N.ar    1  UNL1       -0.2304
     34 N         143.2638  142.1602  167.4023 N.am    1  UNL1       -0.2639
     35 C         142.6066  141.5474  168.6033 C.2     1  UNL1        0.2718
     36 O         142.2509  142.4038  169.7824 O.2     1  UNL1       -0.2707
     37 C         142.3051  140.0782  168.6253 C.3     1  UNL1        0.2898
     38 O         142.6608  139.2218  167.4463 O.3     1  UNL1       -0.4628
     39 H         143.4617  143.1245  167.3878 H       1  UNL1        0.1565
@<TRIPOS>BOND
     1    12    13    1
     2    13    14   ar
     3    14    15   ar
     4    15    16    2
     5    15    17   ar
     6    17    11    1
     7    11     7    1
     8     7     8    1
     9     7     1    1
    10     1     2    1
    11     2     3    1
    12     3     4    1
    13     4    25    1
    14    25    27    1
    15    27    28    1
    16    28    29   ar
    17    29    30   ar
    18    30    31   ar
    19    31    32   ar
    20    32    33   ar
    21    32    34    1
    22    34    35   am
    23    35    36    2
    24    35    37    1
    25    37    38    1
    26     4     5    1
    27     5     6    1
    28    17    18   ar
    29    18    19   ar
    30    19    20   ar
    31    20    21    1
    32    20    22   ar
    33    22    23   ar
    34    23    24   ar
    35    24    13   ar
    36     6     1    1
    37    24    18   ar
    38    33    28   ar
    39    38    31    1
    40     8     9    1
    41     8    10    1
    42    25    26    1
    43    34    39    1
