@<TRIPOS>MOLECULE
*****
 33 37 0 0 0
SMALL
GASTEIGER

@<TRIPOS>ATOM
      1 C         142.4953  139.5270  163.0816 C.2     1  UNL1        0.4243
      2 N         143.3493  138.7472  164.0369 N.2     1  UNL1        0.0275
      3 C         143.1407  138.8877  165.5158 C.2     1  UNL1        0.3991
      4 N         143.8234  138.2523  166.6905 N.2     1  UNL1        0.0826
      5 N         143.1828  138.7799  167.9400 N.2     1  UNL1       -0.0375
      6 C         142.1041  139.7413  167.5374 C.2     1  UNL1        0.1283
      7 C         142.0781  139.8080  166.0392 C.3     1  UNL1        0.2504
      8 C         141.2241  140.5878  165.0838 C.2     1  UNL1        0.3055
      9 O         140.1615  141.5080  165.6073 O.2     1  UNL1       -0.2554
     10 N         141.4327  140.4472  163.6051 N.am    1  UNL1       -0.1358
     11 C         140.5787  141.2270  162.6497 C.3     1  UNL1        0.2167
     12 C         144.3852  140.2114  155.1462 C.3     1  UNL1        0.0335
     13 C         143.7980  139.5492  156.3572 C.3     1  UNL1        0.1294
     14 O         143.0858  138.2292  156.3822 O.3     1  UNL1       -0.3548
     15 C         142.6674  137.9550  157.7964 C.3     1  UNL1        0.1435
     16 C         143.1209  139.1054  158.6453 C.3     1  UNL1        0.0490
     17 C         142.4000  138.0326  159.4063 C.3     1  UNL1        0.0444
     18 C         142.1915  138.1731  160.8851 C.3     1  UNL1        0.1682
     19 N         142.7039  139.3865  161.6028 N.pl3   1  UNL1       -0.1900
     20 C         143.4248  140.4593  160.8418 C.3     1  UNL1        0.1682
     21 C         143.6334  140.3188  159.3631 C.3     1  UNL1        0.0444
     22 C         143.8196  140.0907  157.7559 C.3     1  UNL1        0.0808
     23 N         144.4324  141.3895  158.1891 N.3     1  UNL1       -0.3202
     24 H         144.3030  141.5080  159.1939 H       1  UNL1        0.1189
     25 H         143.9816  142.1596  157.6951 H       1  UNL1        0.1189
     26 C         141.2087  140.5025  168.4696 C.ar    1  UNL1        0.0329
     27 C         139.9720  139.8543  169.0177 C.ar    1  UNL1        0.0229
     28 C         139.0766  140.6154  169.9498 C.ar    1  UNL1        0.0999
     29 N         139.4178  142.0247  170.3339 N.ar    1  UNL1       -0.2316
     30 C         140.6545  142.6729  169.7858 C.ar    1  UNL1        0.1488
     31 CL        140.9957  144.0821  170.1697 Cl      1  UNL1       -0.0604
     32 C         141.5499  141.9118  168.8536 C.ar    1  UNL1        0.0873
     33 CL        142.7866  142.5600  168.3055 Cl      1  UNL1       -0.0797
@<TRIPOS>BOND
     1    13    12    1
     2    13    14    1
     3    14    15    1
     4    15    16    1
     5    16    17    1
     6    17    18    1
     7    18    19    1
     8    19     1    1
     9     1     2    2
    10     2     3    1
    11     3     4    2
    12     4     5    1
    13     5     6    2
    14     6    26    1
    15    26    27   ar
    16    27    28   ar
    17    28    29   ar
    18    29    30   ar
    19    30    31    1
    20    30    32   ar
    21    32    33    1
    22     6     7    1
    23     7     8    1
    24     8     9    2
    25     8    10   am
    26    10    11    1
    27    19    20    1
    28    20    21    1
    29    16    22    1
    30    22    23    1
    31    22    13    1
    32    21    16    1
    33    10     1    1
    34     7     3    1
    35    32    26   ar
    36    23    24    1
    37    23    25    1
@<TRIPOS>MOLECULE
*****
 33 37 0 0 0
SMALL
GASTEIGER

@<TRIPOS>ATOM
      1 C         140.3552  138.9541  162.0882 C.2     1  UNL1        0.4243
      2 N         139.3457  139.2014  161.0066 N.2     1  UNL1        0.0275
      3 C         139.7400  139.0605  159.5662 C.2     1  UNL1        0.3991
      4 N         138.9685  139.2388  158.2924 N.2     1  UNL1        0.0826
      5 N         139.8954  138.9609  157.1463 N.2     1  UNL1       -0.0375
      6 C         141.2399  138.6108  157.7119 C.2     1  UNL1        0.1283
      7 C         141.1438  138.6723  159.2075 C.3     1  UNL1        0.2504
      8 C         142.1533  138.4251  160.2891 C.2     1  UNL1        0.3055
      9 O         143.5571  138.0369  159.9303 O.2     1  UNL1       -0.2554
     10 N         141.7590  138.5659  161.7294 N.am    1  UNL1       -0.1358
     11 C         142.7684  138.3187  162.8111 C.3     1  UNL1        0.2167
     12 C         139.4342  140.8047  170.0089 C.3     1  UNL1        0.0335
     13 C         139.1114  140.0978  168.7260 C.3     1  UNL1        0.1294
     14 O         138.0194  139.0891  168.5258 O.3     1  UNL1       -0.3548
     15 C         138.0570  138.6434  167.0939 C.3     1  UNL1        0.1435
     16 C         139.1722  139.3767  166.4093 C.3     1  UNL1        0.0490
     17 C         138.4237  138.4326  165.5157 C.3     1  UNL1        0.0444
     18 C         138.8181  138.2918  164.0754 C.3     1  UNL1        0.1682
     19 N         139.9608  139.0950  163.5286 N.pl3   1  UNL1       -0.1900
     20 C         140.7093  140.0390  164.4222 C.3     1  UNL1        0.1682
     21 C         140.3150  140.1798  165.8626 C.3     1  UNL1        0.0444
     22 C         139.8238  140.2756  167.4180 C.3     1  UNL1        0.0808
     23 N         140.9841  141.1914  167.1634 N.3     1  UNL1       -0.3202
     24 H         141.2712  141.1132  166.1877 H       1  UNL1        0.1189
     25 H         141.7625  140.9305  167.7688 H       1  UNL1        0.1189
     26 C         142.4652  138.2606  156.9207 C.ar    1  UNL1        0.0329
     27 C         142.7272  136.8347  156.5356 C.ar    1  UNL1        0.0229
     28 C         143.9524  136.4845  155.7444 C.ar    1  UNL1        0.0999
     29 N         144.9158  137.5601  155.3382 N.ar    1  UNL1       -0.2316
     30 C         144.6538  138.9860  155.7232 C.ar    1  UNL1        0.1488
     31 CL        145.6171  140.0616  155.3171 Cl      1  UNL1       -0.0604
     32 C         143.4285  139.3362  156.5144 C.ar    1  UNL1        0.0873
     33 CL        143.1666  140.7621  156.8995 Cl      1  UNL1       -0.0797
@<TRIPOS>BOND
     1    13    12    1
     2    13    14    1
     3    14    15    1
     4    15    16    1
     5    16    17    1
     6    17    18    1
     7    18    19    1
     8    19     1    1
     9     1     2    2
    10     2     3    1
    11     3     4    2
    12     4     5    1
    13     5     6    2
    14     6    26    1
    15    26    27   ar
    16    27    28   ar
    17    28    29   ar
    18    29    30   ar
    19    30    31    1
    20    30    32   ar
    21    32    33    1
    22     6     7    1
    23     7     8    1
    24     8     9    2
    25     8    10   am
    26    10    11    1
    27    19    20    1
    28    20    21    1
    29    16    22    1
    30    22    23    1
    31    22    13    1
    32    21    16    1
    33    10     1    1
    34     7     3    1
    35    32    26   ar
    36    23    24    1
    37    23    25    1
@<TRIPOS>MOLECULE
*****
 33 37 0 0 0
SMALL
GASTEIGER

@<TRIPOS>ATOM
      1 C         140.9537  142.8603  162.2552 C.2     1  UNL1        0.4243
      2 N         141.9550  141.7725  162.5083 N.2     1  UNL1        0.0275
      3 C         142.1947  141.2840  163.9062 C.2     1  UNL1        0.3991
      4 N         143.1114  140.2334  164.4589 N.2     1  UNL1        0.0826
      5 N         142.9164  140.1834  165.9453 N.2     1  UNL1       -0.0375
      6 C         141.8791  141.2032  166.3112 C.2     1  UNL1        0.1283
      7 C         141.4331  141.8835  165.0510 C.3     1  UNL1        0.2504
      8 C         140.4317  142.9713  164.7979 C.2     1  UNL1        0.3055
      9 O         139.6701  143.5707  165.9427 O.2     1  UNL1       -0.2554
     10 N         140.1921  143.4597  163.4000 N.am    1  UNL1       -0.1358
     11 C         139.1908  144.5475  163.1469 C.3     1  UNL1        0.2167
     12 C         140.9056  146.5283  154.9372 C.3     1  UNL1        0.0335
     13 C         140.4329  145.5626  155.9829 C.3     1  UNL1        0.1294
     14 O         139.2987  144.5916  155.8381 O.3     1  UNL1       -0.3548
     15 C         139.1762  143.8270  157.1229 C.3     1  UNL1        0.1435
     16 C         140.2346  144.3255  158.0617 C.3     1  UNL1        0.0490
     17 C         139.3723  143.2404  158.6352 C.3     1  UNL1        0.0444
     18 C         139.6120  142.7520  160.0330 C.3     1  UNL1        0.1682
     19 N         140.7141  143.3487  160.8573 N.pl3   1  UNL1       -0.1900
     20 C         141.5764  144.4337  160.2838 C.3     1  UNL1        0.1682
     21 C         141.3367  144.9221  158.8859 C.3     1  UNL1        0.0444
     22 C         141.0113  145.3981  157.3571 C.3     1  UNL1        0.0808
     23 N         142.1640  146.1705  157.9267 N.3     1  UNL1       -0.3202
     24 H         142.3467  145.8555  158.8795 H       1  UNL1        0.1189
     25 H         141.9360  147.1647  157.9352 H       1  UNL1        0.1189
     26 C         141.3762  141.4921  167.6946 C.ar    1  UNL1        0.0329
     27 C         142.0794  142.5016  168.5526 C.ar    1  UNL1        0.0229
     28 C         141.5765  142.7905  169.9360 C.ar    1  UNL1        0.0999
     29 N         140.3704  142.0698  170.4613 N.ar    1  UNL1       -0.2316
     30 C         139.6672  141.0603  169.6032 C.ar    1  UNL1        0.1488
     31 CL        138.4611  140.3396  170.1285 Cl      1  UNL1       -0.0604
     32 C         140.1701  140.7714  168.2199 C.ar    1  UNL1        0.0873
     33 CL        139.4669  139.7618  167.3618 Cl      1  UNL1       -0.0797
@<TRIPOS>BOND
     1    13    12    1
     2    13    14    1
     3    14    15    1
     4    15    16    1
     5    16    17    1
     6    17    18    1
     7    18    19    1
     8    19     1    1
     9     1     2    2
    10     2     3    1
    11     3     4    2
    12     4     5    1
    13     5     6    2
    14     6    26    1
    15    26    27   ar
    16    27    28   ar
    17    28    29   ar
    18    29    30   ar
    19    30    31    1
    20    30    32   ar
    21    32    33    1
    22     6     7    1
    23     7     8    1
    24     8     9    2
    25     8    10   am
    26    10    11    1
    27    19    20    1
    28    20    21    1
    29    16    22    1
    30    22    23    1
    31    22    13    1
    32    21    16    1
    33    10     1    1
    34     7     3    1
    35    32    26   ar
    36    23    24    1
    37    23    25    1
@<TRIPOS>MOLECULE
*****
 33 37 0 0 0
SMALL
GASTEIGER

@<TRIPOS>ATOM
      1 C         142.3929  139.6901  163.2758 C.2     1  UNL1        0.4243
      2 N         142.9428  138.6005  164.1477 N.2     1  UNL1        0.0275
      3 C         143.0261  138.7981  165.6324 C.2     1  UNL1        0.3991
      4 N         143.5180  137.9106  166.7370 N.2     1  UNL1        0.0826
      5 N         143.3553  138.6492  168.0323 N.2     1  UNL1       -0.0375
      6 C         142.7628  139.9932  167.7282 C.2     1  UNL1        0.1283
      7 C         142.5594  140.0852  166.2450 C.3     1  UNL1        0.2504
      8 C         142.0094  141.1749  165.3730 C.2     1  UNL1        0.3055
      9 O         141.5427  142.4620  165.9857 O.2     1  UNL1       -0.2554
     10 N         141.9261  140.9773  163.8885 N.am    1  UNL1       -0.1358
     11 C         141.3761  142.0669  163.0165 C.3     1  UNL1        0.2167
     12 C         143.4065  139.3424  155.1602 C.3     1  UNL1        0.0335
     13 C         142.6855  139.1192  156.4564 C.3     1  UNL1        0.1294
     14 O         141.3441  138.4675  156.6184 O.3     1  UNL1       -0.3548
     15 C         141.0089  138.4541  158.0805 C.3     1  UNL1        0.1435
     16 C         142.1430  139.0974  158.8221 C.3     1  UNL1        0.0490
     17 C         141.0230  138.6319  159.7046 C.3     1  UNL1        0.0444
     18 C         141.1063  138.8294  161.1892 C.3     1  UNL1        0.1682
     19 N         142.3096  139.4925  161.7912 N.pl3   1  UNL1       -0.1900
     20 C         143.4295  139.9581  160.9086 C.3     1  UNL1        0.1682
     21 C         143.3462  139.7605  159.4241 C.3     1  UNL1        0.0444
     22 C         143.1792  139.5085  157.8183 C.3     1  UNL1        0.0808
     23 N         144.4806  140.1892  158.1231 N.3     1  UNL1       -0.3202
     24 H         144.5606  140.3349  159.1295 H       1  UNL1        0.1189
     25 H         144.5131  141.0899  157.6455 H       1  UNL1        0.1189
     26 C         142.4320  141.0582  168.7314 C.ar    1  UNL1        0.0329
     27 C         143.5170  141.9401  169.2745 C.ar    1  UNL1        0.0229
     28 C         143.1862  143.0051  170.2776 C.ar    1  UNL1        0.0999
     29 N         141.7704  143.1883  170.7377 N.ar    1  UNL1       -0.2316
     30 C         140.6853  142.3064  170.1947 C.ar    1  UNL1        0.1488
     31 CL        139.2694  142.4895  170.6547 Cl      1  UNL1       -0.0604
     32 C         141.0161  141.2414  169.1915 C.ar    1  UNL1        0.0873
     33 CL        139.9310  140.3595  168.6485 Cl      1  UNL1       -0.0797
@<TRIPOS>BOND
     1    13    12    1
     2    13    14    1
     3    14    15    1
     4    15    16    1
     5    16    17    1
     6    17    18    1
     7    18    19    1
     8    19     1    1
     9     1     2    2
    10     2     3    1
    11     3     4    2
    12     4     5    1
    13     5     6    2
    14     6    26    1
    15    26    27   ar
    16    27    28   ar
    17    28    29   ar
    18    29    30   ar
    19    30    31    1
    20    30    32   ar
    21    32    33    1
    22     6     7    1
    23     7     8    1
    24     8     9    2
    25     8    10   am
    26    10    11    1
    27    19    20    1
    28    20    21    1
    29    16    22    1
    30    22    23    1
    31    22    13    1
    32    21    16    1
    33    10     1    1
    34     7     3    1
    35    32    26   ar
    36    23    24    1
    37    23    25    1
@<TRIPOS>MOLECULE
*****
 33 37 0 0 0
SMALL
GASTEIGER

@<TRIPOS>ATOM
      1 C         142.6676  141.6591  160.6431 C.2     1  UNL1        0.4243
      2 N         141.6241  142.7328  160.7339 N.2     1  UNL1        0.0275
      3 C         140.7559  142.8338  161.9529 C.2     1  UNL1        0.3991
      4 N         139.6521  143.7794  162.3234 N.2     1  UNL1        0.0826
      5 N         139.1452  143.3912  163.6807 N.2     1  UNL1       -0.0375
      6 C         139.9357  142.2055  164.1490 C.2     1  UNL1        0.1283
      7 C         140.9312  141.8611  163.0812 C.3     1  UNL1        0.2504
      8 C         141.9747  140.7873  162.9904 C.2     1  UNL1        0.3055
      9 O         142.1500  139.8146  164.1187 O.2     1  UNL1       -0.2554
     10 N         142.8428  140.6863  161.7714 N.am    1  UNL1       -0.1358
     11 C         143.8863  139.6125  161.6806 C.3     1  UNL1        0.2167
     12 C         148.2395  142.3371  154.6846 C.3     1  UNL1        0.0335
     13 C         147.0352  141.7605  155.3678 C.3     1  UNL1        0.1294
     14 O         146.1810  140.6403  154.8523 O.3     1  UNL1       -0.3548
     15 C         145.0913  140.3903  155.8524 C.3     1  UNL1        0.1435
     16 C         145.2721  141.3559  156.9860 C.3     1  UNL1        0.0490
     17 C         144.0983  140.4363  157.1491 C.3     1  UNL1        0.0444
     18 C         143.2302  140.5374  158.3681 C.3     1  UNL1        0.1682
     19 N         143.5358  141.5580  159.4240 N.pl3   1  UNL1       -0.1900
     20 C         144.7095  142.4776  159.2609 C.3     1  UNL1        0.1682
     21 C         145.5777  142.3765  158.0419 C.3     1  UNL1        0.0444
     22 C         146.4734  142.2027  156.6864 C.3     1  UNL1        0.0808
     23 N         147.0174  143.2993  157.5534 N.3     1  UNL1       -0.3202
     24 H         146.4422  143.3875  158.3910 H       1  UNL1        0.1189
     25 H         147.0039  144.1790  157.0374 H       1  UNL1        0.1189
     26 C         139.7613  141.4900  165.4558 C.ar    1  UNL1        0.0329
     27 C         140.4862  141.9721  166.6773 C.ar    1  UNL1        0.0229
     28 C         140.3119  141.2566  167.9841 C.ar    1  UNL1        0.0999
     29 N         139.4127  140.0591  168.0694 N.ar    1  UNL1       -0.2316
     30 C         138.6878  139.5770  166.8479 C.ar    1  UNL1        0.1488
     31 CL        137.7885  138.3795  166.9331 Cl      1  UNL1       -0.0604
     32 C         138.8621  140.2925  165.5411 C.ar    1  UNL1        0.0873
     33 CL        138.1372  139.8104  164.3196 Cl      1  UNL1       -0.0797
@<TRIPOS>BOND
     1    13    12    1
     2    13    14    1
     3    14    15    1
     4    15    16    1
     5    16    17    1
     6    17    18    1
     7    18    19    1
     8    19     1    1
     9     1     2    2
    10     2     3    1
    11     3     4    2
    12     4     5    1
    13     5     6    2
    14     6    26    1
    15    26    27   ar
    16    27    28   ar
    17    28    29   ar
    18    29    30   ar
    19    30    31    1
    20    30    32   ar
    21    32    33    1
    22     6     7    1
    23     7     8    1
    24     8     9    2
    25     8    10   am
    26    10    11    1
    27    19    20    1
    28    20    21    1
    29    16    22    1
    30    22    23    1
    31    22    13    1
    32    21    16    1
    33    10     1    1
    34     7     3    1
    35    32    26   ar
    36    23    24    1
    37    23    25    1
@<TRIPOS>MOLECULE
*****
 33 37 0 0 0
SMALL
GASTEIGER

@<TRIPOS>ATOM
      1 C         139.8685  140.2728  163.2153 C.2     1  UNL1        0.4243
      2 N         139.1205  139.4263  164.2020 N.2     1  UNL1        0.0275
      3 C         139.2485  139.6973  165.6718 C.2     1  UNL1        0.3991
      4 N         138.6373  139.0360  166.8713 N.2     1  UNL1        0.0826
      5 N         139.1357  139.7449  168.0957 N.2     1  UNL1       -0.0375
      6 C         140.0548  140.8444  167.6528 C.2     1  UNL1        0.1283
      7 C         140.1246  140.8150  166.1548 C.3     1  UNL1        0.2504
      8 C         140.8726  141.6616  165.1680 C.2     1  UNL1        0.3055
      9 O         141.7487  142.7793  165.6510 O.2     1  UNL1       -0.2554
     10 N         140.7446  141.3905  163.6983 N.am    1  UNL1       -0.1358
     11 C         141.4927  142.2371  162.7115 C.3     1  UNL1        0.2167
     12 C         138.1861  140.1052  155.2058 C.3     1  UNL1        0.0335
     13 C         138.8289  139.6317  156.4756 C.3     1  UNL1        0.1294
     14 O         139.7465  138.4530  156.6131 O.3     1  UNL1       -0.3548
     15 C         140.1517  138.3466  158.0535 C.3     1  UNL1        0.1435
     16 C         139.4846  139.4595  158.8061 C.3     1  UNL1        0.0490
     17 C         140.3432  138.5743  159.6600 C.3     1  UNL1        0.0444
     18 C         140.4712  138.8454  161.1297 C.3     1  UNL1        0.1682
     19 N         139.7406  140.0018  161.7455 N.pl3   1  UNL1       -0.1900
     20 C         138.8820  140.8870  160.8916 C.3     1  UNL1        0.1682
     21 C         138.7540  140.6159  159.4219 C.3     1  UNL1        0.0444
     22 C         138.6671  140.2538  157.8309 C.3     1  UNL1        0.0808
     23 N         137.8341  141.4585  158.1543 N.3     1  UNL1       -0.3202
     24 H         137.9051  141.6633  159.1510 H       1  UNL1        0.1189
     25 H         136.8604  141.2731  157.9138 H       1  UNL1        0.1189
     26 C         140.7774  141.8047  168.5505 C.ar    1  UNL1        0.0329
     27 C         140.0480  142.9770  169.1366 C.ar    1  UNL1        0.0229
     28 C         140.7704  143.9374  170.0343 C.ar    1  UNL1        0.0999
     29 N         142.2223  143.7254  170.3458 N.ar    1  UNL1       -0.2316
     30 C         142.9517  142.5531  169.7597 C.ar    1  UNL1        0.1488
     31 CL        144.4036  142.3410  170.0712 Cl      1  UNL1       -0.0604
     32 C         142.2293  141.5927  168.8620 C.ar    1  UNL1        0.0873
     33 CL        142.9587  140.4204  168.2759 Cl      1  UNL1       -0.0797
@<TRIPOS>BOND
     1    13    12    1
     2    13    14    1
     3    14    15    1
     4    15    16    1
     5    16    17    1
     6    17    18    1
     7    18    19    1
     8    19     1    1
     9     1     2    2
    10     2     3    1
    11     3     4    2
    12     4     5    1
    13     5     6    2
    14     6    26    1
    15    26    27   ar
    16    27    28   ar
    17    28    29   ar
    18    29    30   ar
    19    30    31    1
    20    30    32   ar
    21    32    33    1
    22     6     7    1
    23     7     8    1
    24     8     9    2
    25     8    10   am
    26    10    11    1
    27    19    20    1
    28    20    21    1
    29    16    22    1
    30    22    23    1
    31    22    13    1
    32    21    16    1
    33    10     1    1
    34     7     3    1
    35    32    26   ar
    36    23    24    1
    37    23    25    1
@<TRIPOS>MOLECULE
*****
 33 37 0 0 0
SMALL
GASTEIGER

@<TRIPOS>ATOM
      1 C         141.9404  139.4936  162.1172 C.2     1  UNL1        0.4243
      2 N         142.8222  140.6742  162.3976 N.2     1  UNL1        0.0275
      3 C         142.9923  141.1659  163.8045 C.2     1  UNL1        0.3991
      4 N         143.7898  142.2970  164.3829 N.2     1  UNL1        0.0826
      5 N         143.5710  142.3072  165.8668 N.2     1  UNL1       -0.0375
      6 C         142.6382  141.1824  166.2055 C.2     1  UNL1        0.1283
      7 C         142.2806  140.4771  164.9310 C.3     1  UNL1        0.2504
      8 C         141.3988  139.2964  164.6505 C.2     1  UNL1        0.3055
      9 O         140.6870  138.6076  165.7770 O.2     1  UNL1       -0.2554
     10 N         141.2287  138.8047  163.2437 N.am    1  UNL1       -0.1358
     11 C         140.3469  137.6241  162.9632 C.3     1  UNL1        0.2167
     12 C         139.5689  137.5844  154.5184 C.3     1  UNL1        0.0335
     13 C         140.4965  137.5928  155.6971 C.3     1  UNL1        0.1294
     14 O         141.8406  136.9304  155.7662 O.3     1  UNL1       -0.3548
     15 C         142.4176  137.1934  157.1256 C.3     1  UNL1        0.1435
     16 C         141.4303  138.0184  157.8966 C.3     1  UNL1        0.0490
     17 C         142.6792  137.6905  158.6599 C.3     1  UNL1        0.0444
     18 C         142.8493  138.1823  160.0667 C.3     1  UNL1        0.1682
     19 N         141.7703  139.0019  160.7103 N.pl3   1  UNL1       -0.1900
     20 C         140.5214  139.3297  159.9471 C.3     1  UNL1        0.1682
     21 C         140.3513  138.8379  158.5403 C.3     1  UNL1        0.0444
     22 C         140.2429  138.2652  157.0138 C.3     1  UNL1        0.0808
     23 N         139.0173  139.0472  157.3829 N.3     1  UNL1       -0.3202
     24 H         139.1094  139.3930  158.3380 H       1  UNL1        0.1189
     25 H         138.1969  138.4446  157.3171 H       1  UNL1        0.1189
     26 C         142.1490  140.8256  167.5779 C.ar    1  UNL1        0.0329
     27 C         142.7385  139.6521  168.3026 C.ar    1  UNL1        0.0229
     28 C         142.2493  139.2953  169.6750 C.ar    1  UNL1        0.0999
     29 N         141.1707  140.1120  170.3227 N.ar    1  UNL1       -0.2316
     30 C         140.5813  141.2856  169.5979 C.ar    1  UNL1        0.1488
     31 CL        139.5026  142.1024  170.2455 Cl      1  UNL1       -0.0604
     32 C         141.0704  141.6424  168.2255 C.ar    1  UNL1        0.0873
     33 CL        140.4809  142.8160  167.5008 Cl      1  UNL1       -0.0797
@<TRIPOS>BOND
     1    13    12    1
     2    13    14    1
     3    14    15    1
     4    15    16    1
     5    16    17    1
     6    17    18    1
     7    18    19    1
     8    19     1    1
     9     1     2    2
    10     2     3    1
    11     3     4    2
    12     4     5    1
    13     5     6    2
    14     6    26    1
    15    26    27   ar
    16    27    28   ar
    17    28    29   ar
    18    29    30   ar
    19    30    31    1
    20    30    32   ar
    21    32    33    1
    22     6     7    1
    23     7     8    1
    24     8     9    2
    25     8    10   am
    26    10    11    1
    27    19    20    1
    28    20    21    1
    29    16    22    1
    30    22    23    1
    31    22    13    1
    32    21    16    1
    33    10     1    1
    34     7     3    1
    35    32    26   ar
    36    23    24    1
    37    23    25    1
@<TRIPOS>MOLECULE
*****
 33 37 0 0 0
SMALL
GASTEIGER

@<TRIPOS>ATOM
      1 C         143.0229  138.0291  156.4795 C.2     1  UNL1        0.4243
      2 N         144.3343  138.7272  156.2724 N.2     1  UNL1        0.0275
      3 C         144.5073  140.1475  156.7228 C.2     1  UNL1        0.3991
      4 N         145.6740  141.0875  156.6532 N.2     1  UNL1        0.0826
      5 N         145.2567  142.3907  157.2677 N.2     1  UNL1       -0.0375
      6 C         143.8320  142.2561  157.7169 C.2     1  UNL1        0.1283
      7 C         143.3688  140.8698  157.3802 C.3     1  UNL1        0.2504
      8 C         142.0573  140.1717  157.5872 C.2     1  UNL1        0.3055
      9 O         140.9188  140.8939  158.2446 O.2     1  UNL1       -0.2554
     10 N         141.8844  138.7514  157.1369 N.am    1  UNL1       -0.1358
     11 C         140.5729  138.0533  157.3439 C.3     1  UNL1        0.2167
     12 C         142.3723  129.9172  155.5942 C.3     1  UNL1        0.0335
     13 C         142.3640  131.3452  155.1354 C.3     1  UNL1        0.1294
     14 O         142.1118  131.8200  153.7350 O.3     1  UNL1       -0.3548
     15 C         142.1983  133.3175  153.7306 C.3     1  UNL1        0.1435
     16 C         142.5040  133.7683  155.1283 C.3     1  UNL1        0.0490
     17 C         142.3721  134.8895  154.1408 C.3     1  UNL1        0.0444
     18 C         142.5451  136.3098  154.5912 C.3     1  UNL1        0.1682
     19 N         142.8499  136.6088  156.0291 N.pl3   1  UNL1       -0.1900
     20 C         142.9819  135.4875  157.0166 C.3     1  UNL1        0.1682
     21 C         142.8089  134.0673  156.5662 C.3     1  UNL1        0.0444
     22 C         142.6064  132.5493  155.9965 C.3     1  UNL1        0.0808
     23 N         142.8997  132.5367  157.4675 N.3     1  UNL1       -0.3202
     24 H         143.0216  133.4939  157.7980 H       1  UNL1        0.1189
     25 H         143.7537  132.0062  157.6393 H       1  UNL1        0.1189
     26 C         143.0140  143.3210  158.3856 C.ar    1  UNL1        0.0329
     27 C         142.3949  144.4154  157.5677 C.ar    1  UNL1        0.0229
     28 C         141.5770  145.4803  158.2363 C.ar    1  UNL1        0.0999
     29 N         141.3782  145.4508  159.7227 N.ar    1  UNL1       -0.2316
     30 C         141.9973  144.3564  160.5406 C.ar    1  UNL1        0.1488
     31 CL        141.7986  144.3268  162.0271 Cl      1  UNL1       -0.0604
     32 C         142.8152  143.2915  159.8721 C.ar    1  UNL1        0.0873
     33 CL        143.4344  142.1971  160.6900 Cl      1  UNL1       -0.0797
@<TRIPOS>BOND
     1    13    12    1
     2    13    14    1
     3    14    15    1
     4    15    16    1
     5    16    17    1
     6    17    18    1
     7    18    19    1
     8    19     1    1
     9     1     2    2
    10     2     3    1
    11     3     4    2
    12     4     5    1
    13     5     6    2
    14     6    26    1
    15    26    27   ar
    16    27    28   ar
    17    28    29   ar
    18    29    30   ar
    19    30    31    1
    20    30    32   ar
    21    32    33    1
    22     6     7    1
    23     7     8    1
    24     8     9    2
    25     8    10   am
    26    10    11    1
    27    19    20    1
    28    20    21    1
    29    16    22    1
    30    22    23    1
    31    22    13    1
    32    21    16    1
    33    10     1    1
    34     7     3    1
    35    32    26   ar
    36    23    24    1
    37    23    25    1
@<TRIPOS>MOLECULE
*****
 33 37 0 0 0
SMALL
GASTEIGER

@<TRIPOS>ATOM
      1 C         139.5147  140.4433  162.6950 C.2     1  UNL1        0.4243
      2 N         139.6904  139.2664  161.7818 N.2     1  UNL1        0.0275
      3 C         139.4362  139.4140  160.3108 C.2     1  UNL1        0.3991
      4 N         139.5260  138.4395  159.1741 N.2     1  UNL1        0.0826
      5 N         139.1516  139.1617  157.9138 N.2     1  UNL1       -0.0375
      6 C         138.8305  140.5826  158.2718 C.2     1  UNL1        0.1283
      7 C         139.0064  140.7384  159.7531 C.3     1  UNL1        0.2504
      8 C         138.8307  141.9154  160.6665 C.2     1  UNL1        0.3055
      9 O         138.4008  143.2398  160.1088 O.2     1  UNL1       -0.2554
     10 N         139.0849  141.7678  162.1374 N.am    1  UNL1       -0.1358
     11 C         138.9092  142.9447  163.0507 C.3     1  UNL1        0.2167
     12 C         142.4738  139.8446  170.3040 C.3     1  UNL1        0.0335
     13 C         141.4037  139.8611  169.2531 C.3     1  UNL1        0.1294
     14 O         139.9328  139.6861  169.4897 O.3     1  UNL1       -0.3548
     15 C         139.2365  139.7723  168.1638 C.3     1  UNL1        0.1435
     16 C         140.2771  140.0006  167.1078 C.3     1  UNL1        0.0490
     17 C         138.8763  139.9229  166.5772 C.3     1  UNL1        0.0444
     18 C         138.6222  140.0704  165.1063 C.3     1  UNL1        0.1682
     19 N         139.7689  140.2957  164.1660 N.pl3   1  UNL1       -0.1900
     20 C         141.1697  140.3735  164.6966 C.3     1  UNL1        0.1682
     21 C         141.4238  140.2260  166.1675 C.3     1  UNL1        0.0444
     22 C         141.6165  140.0555  167.7811 C.3     1  UNL1        0.0808
     23 N         142.9367  140.2675  167.1015 N.3     1  UNL1       -0.3202
     24 H         142.7896  140.3709  166.0975 H       1  UNL1        0.1189
     25 H         143.5416  139.4649  167.2757 H       1  UNL1        0.1189
     26 C         138.4076  141.6585  157.3160 C.ar    1  UNL1        0.0329
     27 C         137.0030  141.6851  156.7903 C.ar    1  UNL1        0.0229
     28 C         136.5801  142.7610  155.8345 C.ar    1  UNL1        0.0999
     29 N         137.5618  143.8104  155.4044 N.ar    1  UNL1       -0.2316
     30 C         138.9665  143.7838  155.9300 C.ar    1  UNL1        0.1488
     31 CL        139.9482  144.8332  155.4999 Cl      1  UNL1       -0.0604
     32 C         139.3894  142.7079  156.8858 C.ar    1  UNL1        0.0873
     33 CL        140.7940  142.6813  157.4115 Cl      1  UNL1       -0.0797
@<TRIPOS>BOND
     1    13    12    1
     2    13    14    1
     3    14    15    1
     4    15    16    1
     5    16    17    1
     6    17    18    1
     7    18    19    1
     8    19     1    1
     9     1     2    2
    10     2     3    1
    11     3     4    2
    12     4     5    1
    13     5     6    2
    14     6    26    1
    15    26    27   ar
    16    27    28   ar
    17    28    29   ar
    18    29    30   ar
    19    30    31    1
    20    30    32   ar
    21    32    33    1
    22     6     7    1
    23     7     8    1
    24     8     9    2
    25     8    10   am
    26    10    11    1
    27    19    20    1
    28    20    21    1
    29    16    22    1
    30    22    23    1
    31    22    13    1
    32    21    16    1
    33    10     1    1
    34     7     3    1
    35    32    26   ar
    36    23    24    1
    37    23    25    1
