@<TRIPOS>MOLECULE
*****
 29 31 0 0 0
SMALL
GASTEIGER

@<TRIPOS>ATOM
      1 C         140.3866  139.9185  166.0763 C.2     1  UNL1        0.2403
      2 O         140.6355  139.7348  167.5441 O.2     1  UNL1       -0.2734
      3 N         140.7353  141.2180  165.4133 N.am    1  UNL1       -0.2685
      4 C         140.5448  141.5465  163.9622 C.3     1  UNL1        0.1205
      5 C         141.0275  142.9487  163.7370 C.2     1  UNL1       -0.0024
      6 C         141.5163  143.4869  165.0490 C.2     1  UNL1       -0.0047
      7 C         141.3357  142.4173  166.0850 C.3     1  UNL1        0.1203
      8 C         141.0224  143.6837  162.4294 C.ar    1  UNL1        0.0271
      9 C         141.9032  143.2225  161.3063 C.ar    1  UNL1        0.0316
     10 C         141.8980  143.9575  159.9988 C.ar    1  UNL1        0.1403
     11 F         142.7789  143.4964  158.8756 F       1  UNL1       -0.2042
     12 C         141.0119  145.1537  159.8143 C.ar    1  UNL1        0.0319
     13 C         140.1310  145.6149  160.9374 C.ar    1  UNL1        0.0319
     14 C         140.1363  144.8799  162.2449 C.ar    1  UNL1        0.1400
     15 F         139.2554  145.3411  163.3681 F       1  UNL1       -0.2042
     16 C         141.6928  142.5276  167.5378 C.ar    1  UNL1       -0.0001
     17 C         140.6667  142.9902  168.5293 C.ar    1  UNL1       -0.0023
     18 C         141.0238  143.1005  169.9820 C.ar    1  UNL1       -0.0003
     19 C         142.4069  142.7482  170.4431 C.ar    1  UNL1       -0.0000
     20 C         143.4331  142.2856  169.4515 C.ar    1  UNL1       -0.0003
     21 C         143.0760  142.1754  167.9989 C.ar    1  UNL1       -0.0023
     22 C         139.7889  138.8026  165.2715 C.3     1  UNL1        0.1284
     23 N         138.3807  138.3582  165.5355 N.3     1  UNL1       -0.3150
     24 H         138.1404  137.5959  164.9018 H       1  UNL1        0.1192
     25 H         137.7434  139.1401  165.3840 H       1  UNL1        0.1192
     26 C         139.4172  138.1719  163.2806 C.3     1  UNL1        0.0018
     27 C         140.5994  138.1311  164.2028 C.3     1  UNL1        0.0214
     28 C         141.7817  138.0903  165.1251 C.3     1  UNL1        0.0018
     29 C         141.4099  137.4597  163.1341 C.3     1  UNL1        0.0018
@<TRIPOS>BOND
     1    26    27    1
     2    27    28    1
     3    27    29    1
     4    27    22    1
     5    22    23    1
     6    22     1    1
     7     1     2    2
     8     1     3   am
     9     3     4    1
    10     4     5    1
    11     5     8    1
    12     8     9   ar
    13     9    10   ar
    14    10    11    1
    15    10    12   ar
    16    12    13   ar
    17    13    14   ar
    18    14    15    1
    19     5     6    2
    20     6     7    1
    21     7    16    1
    22    16    17   ar
    23    17    18   ar
    24    18    19   ar
    25    19    20   ar
    26    20    21   ar
    27     7     3    1
    28    21    16   ar
    29    14     8   ar
    30    23    24    1
    31    23    25    1
@<TRIPOS>MOLECULE
*****
 29 31 0 0 0
SMALL
GASTEIGER

@<TRIPOS>ATOM
      1 C         140.2291  139.8857  166.3040 C.2     1  UNL1        0.2403
      2 O         140.5711  139.7192  167.7550 O.2     1  UNL1       -0.2734
      3 N         140.5352  141.1769  165.6047 N.am    1  UNL1       -0.2685
      4 C         140.2527  141.4884  164.1649 C.3     1  UNL1        0.1205
      5 C         140.7205  142.8874  163.8928 C.2     1  UNL1       -0.0024
      6 C         141.2920  143.4406  165.1645 C.2     1  UNL1       -0.0047
      7 C         141.1775  142.3835  166.2225 C.3     1  UNL1        0.1203
      8 C         140.6321  143.6068  162.5795 C.ar    1  UNL1        0.0271
      9 C         139.9699  144.9506  162.5035 C.ar    1  UNL1        0.0316
     10 C         139.8816  145.6699  161.1903 C.ar    1  UNL1        0.1403
     11 F         139.2194  147.0137  161.1142 F       1  UNL1       -0.2042
     12 C         140.4555  145.0455  159.9530 C.ar    1  UNL1        0.0319
     13 C         141.1177  143.7018  160.0290 C.ar    1  UNL1        0.0319
     14 C         141.2060  142.9824  161.3422 C.ar    1  UNL1        0.1400
     15 F         141.8682  141.6386  161.4182 F       1  UNL1       -0.2042
     16 C         141.6266  142.5107  167.6481 C.ar    1  UNL1       -0.0001
     17 C         143.0337  142.1540  168.0259 C.ar    1  UNL1       -0.0023
     18 C         143.4827  142.2812  169.4515 C.ar    1  UNL1       -0.0003
     19 C         142.5246  142.7650  170.4992 C.ar    1  UNL1       -0.0000
     20 C         141.1173  143.1217  170.1214 C.ar    1  UNL1       -0.0003
     21 C         140.6684  142.9946  168.6959 C.ar    1  UNL1       -0.0023
     22 C         139.5811  138.7610  165.5523 C.3     1  UNL1        0.1284
     23 N         138.2064  138.2977  165.9339 N.3     1  UNL1       -0.3150
     24 H         137.9240  137.5316  165.3227 H       1  UNL1        0.1192
     25 H         137.5480  139.0707  165.8368 H       1  UNL1        0.1192
     26 C         139.0415  138.0856  163.6152 C.3     1  UNL1        0.0018
     27 C         140.3078  138.0996  164.4190 C.3     1  UNL1        0.0214
     28 C         141.5741  138.1135  165.2229 C.3     1  UNL1        0.0018
     29 C         141.0345  137.4381  163.2857 C.3     1  UNL1        0.0018
@<TRIPOS>BOND
     1    26    27    1
     2    27    28    1
     3    27    29    1
     4    27    22    1
     5    22    23    1
     6    22     1    1
     7     1     2    2
     8     1     3   am
     9     3     4    1
    10     4     5    1
    11     5     8    1
    12     8     9   ar
    13     9    10   ar
    14    10    11    1
    15    10    12   ar
    16    12    13   ar
    17    13    14   ar
    18    14    15    1
    19     5     6    2
    20     6     7    1
    21     7    16    1
    22    16    17   ar
    23    17    18   ar
    24    18    19   ar
    25    19    20   ar
    26    20    21   ar
    27     7     3    1
    28    21    16   ar
    29    14     8   ar
    30    23    24    1
    31    23    25    1
@<TRIPOS>MOLECULE
*****
 29 31 0 0 0
SMALL
GASTEIGER

@<TRIPOS>ATOM
      1 C         139.4950  141.1764  162.9495 C.2     1  UNL1        0.2403
      2 O         140.0400  140.6371  161.6602 O.2     1  UNL1       -0.2734
      3 N         140.2729  141.0088  164.2210 N.am    1  UNL1       -0.2685
      4 C         139.8577  141.4924  165.5789 C.3     1  UNL1        0.1205
      5 C         140.9308  141.1107  166.5550 C.2     1  UNL1       -0.0024
      6 C         142.0092  140.3913  165.8005 C.2     1  UNL1       -0.0047
      7 C         141.6027  140.3283  164.3580 C.3     1  UNL1        0.1203
      8 C         140.9262  141.3980  168.0273 C.ar    1  UNL1        0.0271
      9 C         141.9159  142.3654  168.6057 C.ar    1  UNL1        0.0316
     10 C         141.9113  142.6527  170.0779 C.ar    1  UNL1        0.1403
     11 F         142.9011  143.6200  170.6564 F       1  UNL1       -0.2042
     12 C         140.9170  141.9726  170.9717 C.ar    1  UNL1        0.0319
     13 C         139.9272  141.0053  170.3932 C.ar    1  UNL1        0.0319
     14 C         139.9319  140.7180  168.9210 C.ar    1  UNL1        0.1400
     15 F         138.9421  139.7506  168.3425 F       1  UNL1       -0.2042
     16 C         142.3880  139.6959  163.2474 C.ar    1  UNL1       -0.0001
     17 C         142.1393  138.2646  162.8737 C.ar    1  UNL1       -0.0023
     18 C         142.9246  137.6322  161.7631 C.ar    1  UNL1       -0.0003
     19 C         143.9585  138.4310  161.0263 C.ar    1  UNL1       -0.0000
     20 C         144.2071  139.8624  161.4001 C.ar    1  UNL1       -0.0003
     21 C         143.4219  140.4947  162.5106 C.ar    1  UNL1       -0.0023
     22 C         138.1721  141.8832  162.9673 C.3     1  UNL1        0.1284
     23 N         136.8991  141.0911  163.0138 N.3     1  UNL1       -0.3150
     24 H         136.1024  141.7280  163.0202 H       1  UNL1        0.1192
     25 H         136.8847  140.5200  163.8588 H       1  UNL1        0.1192
     26 C         137.5159  143.3882  164.3105 C.3     1  UNL1        0.0018
     27 C         138.1222  143.3821  162.9385 C.3     1  UNL1        0.0214
     28 C         138.7284  143.3759  161.5665 C.3     1  UNL1        0.0018
     29 C         138.0723  144.8809  162.9098 C.3     1  UNL1        0.0018
@<TRIPOS>BOND
     1    26    27    1
     2    27    28    1
     3    27    29    1
     4    27    22    1
     5    22    23    1
     6    22     1    1
     7     1     2    2
     8     1     3   am
     9     3     4    1
    10     4     5    1
    11     5     8    1
    12     8     9   ar
    13     9    10   ar
    14    10    11    1
    15    10    12   ar
    16    12    13   ar
    17    13    14   ar
    18    14    15    1
    19     5     6    2
    20     6     7    1
    21     7    16    1
    22    16    17   ar
    23    17    18   ar
    24    18    19   ar
    25    19    20   ar
    26    20    21   ar
    27     7     3    1
    28    21    16   ar
    29    14     8   ar
    30    23    24    1
    31    23    25    1
@<TRIPOS>MOLECULE
*****
 29 31 0 0 0
SMALL
GASTEIGER

@<TRIPOS>ATOM
      1 C         142.2702  141.4763  163.3175 C.2     1  UNL1        0.2403
      2 O         141.6873  141.0330  162.0084 O.2     1  UNL1       -0.2734
      3 N         141.5288  141.2158  164.5951 N.am    1  UNL1       -0.2685
      4 C         141.9838  141.5984  165.9723 C.3     1  UNL1        0.1205
      5 C         140.9384  141.1461  166.9483 C.2     1  UNL1       -0.0024
      6 C         139.8373  140.4840  166.1744 C.2     1  UNL1       -0.0047
      7 C         140.2021  140.5270  164.7200 C.3     1  UNL1        0.1203
      8 C         140.9859  141.3247  168.4369 C.ar    1  UNL1        0.0271
      9 C         140.0647  142.3020  169.1048 C.ar    1  UNL1        0.0316
     10 C         140.1122  142.4805  170.5934 C.ar    1  UNL1        0.1403
     11 F         139.1910  143.4579  171.2613 F       1  UNL1       -0.2042
     12 C         141.0809  141.6817  171.4140 C.ar    1  UNL1        0.0319
     13 C         142.0021  140.7043  170.7461 C.ar    1  UNL1        0.0319
     14 C         141.9546  140.5258  169.2576 C.ar    1  UNL1        0.1400
     15 F         142.8758  139.5484  168.5896 F       1  UNL1       -0.2042
     16 C         139.3840  139.9777  163.5891 C.ar    1  UNL1       -0.0001
     17 C         138.4300  140.8696  162.8513 C.ar    1  UNL1       -0.0023
     18 C         137.6119  140.3203  161.7204 C.ar    1  UNL1       -0.0003
     19 C         137.7477  138.8792  161.3274 C.ar    1  UNL1       -0.0000
     20 C         138.7017  137.9872  162.0653 C.ar    1  UNL1       -0.0003
     21 C         139.5198  138.5365  163.1961 C.ar    1  UNL1       -0.0023
     22 C         143.5945  142.1799  163.3489 C.3     1  UNL1        0.1284
     23 N         144.8529  141.4244  163.0394 N.3     1  UNL1       -0.3150
     24 H         145.6527  142.0538  163.1071 H       1  UNL1        0.1192
     25 H         144.7978  141.0449  162.0942 H       1  UNL1        0.1192
     26 C         142.7446  143.9486  162.5430 C.3     1  UNL1        0.0018
     27 C         143.6605  143.6392  163.6899 C.3     1  UNL1        0.0214
     28 C         144.5765  143.3298  164.8367 C.3     1  UNL1        0.0018
     29 C         143.7265  145.0984  164.0308 C.3     1  UNL1        0.0018
@<TRIPOS>BOND
     1    26    27    1
     2    27    28    1
     3    27    29    1
     4    27    22    1
     5    22    23    1
     6    22     1    1
     7     1     2    2
     8     1     3   am
     9     3     4    1
    10     4     5    1
    11     5     8    1
    12     8     9   ar
    13     9    10   ar
    14    10    11    1
    15    10    12   ar
    16    12    13   ar
    17    13    14   ar
    18    14    15    1
    19     5     6    2
    20     6     7    1
    21     7    16    1
    22    16    17   ar
    23    17    18   ar
    24    18    19   ar
    25    19    20   ar
    26    20    21   ar
    27     7     3    1
    28    21    16   ar
    29    14     8   ar
    30    23    24    1
    31    23    25    1
@<TRIPOS>MOLECULE
*****
 29 31 0 0 0
SMALL
GASTEIGER

@<TRIPOS>ATOM
      1 C         142.5488  142.8728  162.4970 C.2     1  UNL1        0.2403
      2 O         142.7655  142.0990  161.2304 O.2     1  UNL1       -0.2734
      3 N         142.3321  142.1470  163.7916 N.am    1  UNL1       -0.2685
      4 C         142.1035  142.7822  165.1311 C.3     1  UNL1        0.1205
      5 C         141.9361  141.6862  166.1414 C.2     1  UNL1       -0.0024
      6 C         142.0612  140.3736  165.4264 C.2     1  UNL1       -0.0047
      7 C         142.3060  140.6583  163.9742 C.3     1  UNL1        0.1203
      8 C         141.6872  141.8706  167.6092 C.ar    1  UNL1        0.0271
      9 C         142.7323  142.5132  168.4722 C.ar    1  UNL1        0.0316
     10 C         142.4834  142.6975  169.9398 C.ar    1  UNL1        0.1403
     11 F         143.5286  143.3401  170.8029 F       1  UNL1       -0.2042
     12 C         141.1895  142.2393  170.5445 C.ar    1  UNL1        0.0319
     13 C         140.1444  141.5967  169.6815 C.ar    1  UNL1        0.0319
     14 C         140.3933  141.4123  168.2138 C.ar    1  UNL1        0.1400
     15 F         139.3481  140.7697  167.3507 F       1  UNL1       -0.2042
     16 C         142.4919  139.6342  162.8941 C.ar    1  UNL1       -0.0001
     17 C         141.3092  139.1475  162.1103 C.ar    1  UNL1       -0.0023
     18 C         141.4951  138.1234  161.0302 C.ar    1  UNL1       -0.0003
     19 C         142.8638  137.5860  160.7339 C.ar    1  UNL1       -0.0000
     20 C         144.0466  138.0726  161.5177 C.ar    1  UNL1       -0.0003
     21 C         143.8606  139.0967  162.5977 C.ar    1  UNL1       -0.0023
     22 C         142.5489  144.3726  162.4689 C.3     1  UNL1        0.1284
     23 N         143.8290  145.1266  162.6754 N.3     1  UNL1       -0.3150
     24 H         143.6454  146.1286  162.6250 H       1  UNL1        0.1192
     25 H         144.4975  144.8666  161.9502 H       1  UNL1        0.1192
     26 C         141.2313  145.5094  163.6820 C.3     1  UNL1        0.0018
     27 C         141.2687  145.1183  162.2344 C.3     1  UNL1        0.0214
     28 C         141.3061  144.7272  160.7868 C.3     1  UNL1        0.0018
     29 C         139.9885  145.8640  161.9999 C.3     1  UNL1        0.0018
@<TRIPOS>BOND
     1    26    27    1
     2    27    28    1
     3    27    29    1
     4    27    22    1
     5    22    23    1
     6    22     1    1
     7     1     2    2
     8     1     3   am
     9     3     4    1
    10     4     5    1
    11     5     8    1
    12     8     9   ar
    13     9    10   ar
    14    10    11    1
    15    10    12   ar
    16    12    13   ar
    17    13    14   ar
    18    14    15    1
    19     5     6    2
    20     6     7    1
    21     7    16    1
    22    16    17   ar
    23    17    18   ar
    24    18    19   ar
    25    19    20   ar
    26    20    21   ar
    27     7     3    1
    28    21    16   ar
    29    14     8   ar
    30    23    24    1
    31    23    25    1
@<TRIPOS>MOLECULE
*****
 29 31 0 0 0
SMALL
GASTEIGER

@<TRIPOS>ATOM
      1 C         140.7327  142.9426  162.9012 C.2     1  UNL1        0.2403
      2 O         140.1891  142.2824  161.6689 O.2     1  UNL1       -0.2734
      3 N         140.8079  142.1789  164.1900 N.am    1  UNL1       -0.2685
      4 C         141.3248  142.7033  165.4968 C.3     1  UNL1        0.1205
      5 C         141.2158  141.6051  166.5128 C.2     1  UNL1       -0.0024
      6 C         140.6315  140.4020  165.8339 C.2     1  UNL1       -0.0047
      7 C         140.3794  140.7565  164.3984 C.3     1  UNL1        0.1203
      8 C         141.6201  141.6945  167.9546 C.ar    1  UNL1        0.0271
      9 C         142.9956  142.1682  168.3198 C.ar    1  UNL1        0.0316
     10 C         143.3999  142.2575  169.7615 C.ar    1  UNL1        0.1403
     11 F         144.7755  142.7312  170.1268 F       1  UNL1       -0.2042
     12 C         142.4285  141.8733  170.8380 C.ar    1  UNL1        0.0319
     13 C         141.0530  141.3996  170.4728 C.ar    1  UNL1        0.0319
     14 C         140.6487  141.3103  169.0311 C.ar    1  UNL1        0.1400
     15 F         139.2731  140.8366  168.6658 F       1  UNL1       -0.2042
     16 C         139.8005  139.8482  163.3544 C.ar    1  UNL1       -0.0001
     17 C         138.3209  139.8358  163.1080 C.ar    1  UNL1       -0.0023
     18 C         137.7420  138.9275  162.0641 C.ar    1  UNL1       -0.0003
     19 C         138.6426  138.0316  161.2666 C.ar    1  UNL1       -0.0000
     20 C         140.1222  138.0439  161.5130 C.ar    1  UNL1       -0.0003
     21 C         140.7011  138.9522  162.5569 C.ar    1  UNL1       -0.0023
     22 C         141.2011  144.3664  162.8448 C.3     1  UNL1        0.1284
     23 N         140.2016  145.4824  162.7699 N.3     1  UNL1       -0.3150
     24 H         140.6918  146.3764  162.7389 H       1  UNL1        0.1192
     25 H         139.5980  145.4540  163.5916 H       1  UNL1        0.1192
     26 C         142.8810  143.7326  161.7152 C.3     1  UNL1        0.0018
     27 C         142.6691  144.6743  162.8633 C.3     1  UNL1        0.0214
     28 C         142.4571  145.6160  164.0114 C.3     1  UNL1        0.0018
     29 C         144.1370  144.9822  162.8818 C.3     1  UNL1        0.0018
@<TRIPOS>BOND
     1    26    27    1
     2    27    28    1
     3    27    29    1
     4    27    22    1
     5    22    23    1
     6    22     1    1
     7     1     2    2
     8     1     3   am
     9     3     4    1
    10     4     5    1
    11     5     8    1
    12     8     9   ar
    13     9    10   ar
    14    10    11    1
    15    10    12   ar
    16    12    13   ar
    17    13    14   ar
    18    14    15    1
    19     5     6    2
    20     6     7    1
    21     7    16    1
    22    16    17   ar
    23    17    18   ar
    24    18    19   ar
    25    19    20   ar
    26    20    21   ar
    27     7     3    1
    28    21    16   ar
    29    14     8   ar
    30    23    24    1
    31    23    25    1
@<TRIPOS>MOLECULE
*****
 29 31 0 0 0
SMALL
GASTEIGER

@<TRIPOS>ATOM
      1 C         141.3730  139.1969  162.9474 C.2     1  UNL1        0.2403
      2 O         142.0739  139.8171  161.7750 O.2     1  UNL1       -0.2734
      3 N         141.4818  139.8259  164.3047 N.am    1  UNL1       -0.2685
      4 C         140.8403  139.3225  165.5637 C.3     1  UNL1        0.1205
      5 C         141.2132  140.2542  166.6786 C.2     1  UNL1       -0.0024
      6 C         142.0852  141.3334  166.1087 C.2     1  UNL1       -0.0047
      7 C         142.2513  141.0687  164.6416 C.3     1  UNL1        0.1203
      8 C         140.7886  140.1287  168.1118 C.ar    1  UNL1        0.0271
      9 C         139.3325  140.1724  168.4692 C.ar    1  UNL1        0.0316
     10 C         138.9080  140.0469  169.9024 C.ar    1  UNL1        0.1403
     11 F         137.4518  140.0906  170.2599 F       1  UNL1       -0.2042
     12 C         139.9395  139.8776  170.9781 C.ar    1  UNL1        0.0319
     13 C         141.3956  139.8338  170.6207 C.ar    1  UNL1        0.0319
     14 C         141.8202  139.9594  169.1875 C.ar    1  UNL1        0.1400
     15 F         143.2763  139.9156  168.8301 F       1  UNL1       -0.2042
     16 C         143.0470  141.9008  163.6800 C.ar    1  UNL1       -0.0001
     17 C         144.4472  141.4995  163.3216 C.ar    1  UNL1       -0.0023
     18 C         145.2429  142.3316  162.3601 C.ar    1  UNL1       -0.0003
     19 C         144.6385  143.5648  161.7571 C.ar    1  UNL1       -0.0000
     20 C         143.2382  143.9661  162.1156 C.ar    1  UNL1       -0.0003
     21 C         142.4426  143.1341  163.0770 C.ar    1  UNL1       -0.0023
     22 C         140.5635  137.9478  162.7623 C.3     1  UNL1        0.1284
     23 N         141.1583  136.6120  163.0968 N.3     1  UNL1       -0.3150
     24 H         140.4736  135.8790  162.9117 H       1  UNL1        0.1192
     25 H         141.4186  136.5931  164.0828 H       1  UNL1        0.1192
     26 C         139.6858  138.2594  160.8563 C.3     1  UNL1        0.0018
     27 C         139.1590  138.0345  162.2427 C.3     1  UNL1        0.0214
     28 C         138.6322  137.8097  163.6290 C.3     1  UNL1        0.0018
     29 C         137.7546  138.1212  161.7231 C.3     1  UNL1        0.0018
@<TRIPOS>BOND
     1    26    27    1
     2    27    28    1
     3    27    29    1
     4    27    22    1
     5    22    23    1
     6    22     1    1
     7     1     2    2
     8     1     3   am
     9     3     4    1
    10     4     5    1
    11     5     8    1
    12     8     9   ar
    13     9    10   ar
    14    10    11    1
    15    10    12   ar
    16    12    13   ar
    17    13    14   ar
    18    14    15    1
    19     5     6    2
    20     6     7    1
    21     7    16    1
    22    16    17   ar
    23    17    18   ar
    24    18    19   ar
    25    19    20   ar
    26    20    21   ar
    27     7     3    1
    28    21    16   ar
    29    14     8   ar
    30    23    24    1
    31    23    25    1
@<TRIPOS>MOLECULE
*****
 29 31 0 0 0
SMALL
GASTEIGER

@<TRIPOS>ATOM
      1 C         142.4377  139.5868  162.6914 C.2     1  UNL1        0.2403
      2 O         141.7042  139.4687  161.3883 O.2     1  UNL1       -0.2734
      3 N         141.6747  139.8032  163.9646 N.am    1  UNL1       -0.2685
      4 C         142.2677  139.9397  165.3356 C.3     1  UNL1        0.1205
      5 C         141.1441  140.1419  166.3086 C.2     1  UNL1       -0.0024
      6 C         139.8567  140.1304  165.5390 C.2     1  UNL1       -0.0047
      7 C         140.1845  139.9211  164.0903 C.3     1  UNL1        0.1203
      8 C         141.2836  140.3237  167.7911 C.ar    1  UNL1        0.0271
      9 C         140.3956  141.2919  168.5148 C.ar    1  UNL1        0.0316
     10 C         140.5351  141.4737  169.9972 C.ar    1  UNL1        0.1403
     11 F         139.6470  142.4420  170.7210 F       1  UNL1       -0.2042
     12 C         141.5626  140.6872  170.7558 C.ar    1  UNL1        0.0319
     13 C         142.4507  139.7190  170.0321 C.ar    1  UNL1        0.0319
     14 C         142.3112  139.5372  168.5497 C.ar    1  UNL1        0.1400
     15 F         143.1993  138.5689  167.8259 F       1  UNL1       -0.2042
     16 C         139.1959  139.8433  162.9649 C.ar    1  UNL1       -0.0001
     17 C         138.8299  141.0814  162.2012 C.ar    1  UNL1       -0.0023
     18 C         137.8412  141.0036  161.0758 C.ar    1  UNL1       -0.0003
     19 C         137.2186  139.6878  160.7142 C.ar    1  UNL1       -0.0000
     20 C         137.5846  138.4496  161.4779 C.ar    1  UNL1       -0.0003
     21 C         138.5732  138.5275  162.6032 C.ar    1  UNL1       -0.0023
     22 C         143.9341  139.4886  162.7214 C.3     1  UNL1        0.1284
     23 N         144.6146  138.2489  162.2212 N.3     1  UNL1       -0.3150
     24 H         145.6248  138.3540  162.3152 H       1  UNL1        0.1192
     25 H         144.3777  138.1035  161.2398 H       1  UNL1        0.1192
     26 C         145.3036  139.7371  164.3223 C.3     1  UNL1        0.0018
     27 C         144.7502  140.6301  163.2516 C.3     1  UNL1        0.0214
     28 C         144.1968  141.5230  162.1809 C.3     1  UNL1        0.0018
     29 C         145.5662  141.7715  163.7817 C.3     1  UNL1        0.0018
@<TRIPOS>BOND
     1    26    27    1
     2    27    28    1
     3    27    29    1
     4    27    22    1
     5    22    23    1
     6    22     1    1
     7     1     2    2
     8     1     3   am
     9     3     4    1
    10     4     5    1
    11     5     8    1
    12     8     9   ar
    13     9    10   ar
    14    10    11    1
    15    10    12   ar
    16    12    13   ar
    17    13    14   ar
    18    14    15    1
    19     5     6    2
    20     6     7    1
    21     7    16    1
    22    16    17   ar
    23    17    18   ar
    24    18    19   ar
    25    19    20   ar
    26    20    21   ar
    27     7     3    1
    28    21    16   ar
    29    14     8   ar
    30    23    24    1
    31    23    25    1
@<TRIPOS>MOLECULE
*****
 29 31 0 0 0
SMALL
GASTEIGER

@<TRIPOS>ATOM
      1 C         139.5305  141.1115  162.9248 C.2     1  UNL1        0.2403
      2 O         139.9524  140.6298  161.5684 O.2     1  UNL1       -0.2734
      3 N         140.3735  140.8021  164.1263 N.am    1  UNL1       -0.2685
      4 C         140.0812  141.2148  165.5384 C.3     1  UNL1        0.1205
      5 C         141.1840  140.6935  166.4114 C.2     1  UNL1       -0.0024
      6 C         142.1579  139.9586  165.5388 C.2     1  UNL1       -0.0047
      7 C         141.6570  140.0257  164.1265 C.3     1  UNL1        0.1203
      8 C         141.2936  140.8752  167.8964 C.ar    1  UNL1        0.0271
      9 C         140.3885  140.1086  168.8146 C.ar    1  UNL1        0.0316
     10 C         140.4982  140.2903  170.2995 C.ar    1  UNL1        0.1403
     11 F         139.5931  139.5237  171.2178 F       1  UNL1       -0.2042
     12 C         141.5129  141.2386  170.8662 C.ar    1  UNL1        0.0319
     13 C         142.4179  142.0052  169.9480 C.ar    1  UNL1        0.0319
     14 C         142.3083  141.8235  168.4631 C.ar    1  UNL1        0.1400
     15 F         143.2134  142.5901  167.5448 F       1  UNL1       -0.2042
     16 C         142.3228  139.4224  162.9253 C.ar    1  UNL1       -0.0001
     17 C         143.3923  140.1833  162.1993 C.ar    1  UNL1       -0.0023
     18 C         144.0580  139.5800  160.9981 C.ar    1  UNL1       -0.0003
     19 C         143.6541  138.2158  160.5230 C.ar    1  UNL1       -0.0000
     20 C         142.5846  137.4548  161.2491 C.ar    1  UNL1       -0.0003
     21 C         141.9190  138.0582  162.4502 C.ar    1  UNL1       -0.0023
     22 C         138.2655  141.9026  163.0798 C.3     1  UNL1        0.1284
     23 N         136.9479  141.1952  163.1952 N.3     1  UNL1       -0.3150
     24 H         136.2005  141.8824  163.2934 H       1  UNL1        0.1192
     25 H         136.9594  140.5862  164.0134 H       1  UNL1        0.1192
     26 C         137.6750  143.3880  164.4744 C.3     1  UNL1        0.0018
     27 C         138.3183  143.4011  163.1195 C.3     1  UNL1        0.0214
     28 C         138.9616  143.4143  161.7645 C.3     1  UNL1        0.0018
     29 C         138.3710  144.8997  163.1591 C.3     1  UNL1        0.0018
@<TRIPOS>BOND
     1    26    27    1
     2    27    28    1
     3    27    29    1
     4    27    22    1
     5    22    23    1
     6    22     1    1
     7     1     2    2
     8     1     3   am
     9     3     4    1
    10     4     5    1
    11     5     8    1
    12     8     9   ar
    13     9    10   ar
    14    10    11    1
    15    10    12   ar
    16    12    13   ar
    17    13    14   ar
    18    14    15    1
    19     5     6    2
    20     6     7    1
    21     7    16    1
    22    16    17   ar
    23    17    18   ar
    24    18    19   ar
    25    19    20   ar
    26    20    21   ar
    27     7     3    1
    28    21    16   ar
    29    14     8   ar
    30    23    24    1
    31    23    25    1
