@<TRIPOS>MOLECULE
*****
 36 39 0 0 0
SMALL
GASTEIGER

@<TRIPOS>ATOM
      1 O         141.9668  145.5242  163.5818 O.3     1  UNL1       -0.4103
      2 C         143.1453  142.1148  165.2364 C.ar    1  UNL1        0.0188
      3 C         144.5051  141.9573  164.6232 C.ar    1  UNL1        0.0016
      4 C         145.0188  142.9886  163.6628 C.ar    1  UNL1        0.0032
      5 C         144.1727  144.1776  163.3157 C.ar    1  UNL1        0.0377
      6 C         142.8129  144.3352  163.9289 C.ar    1  UNL1        0.1501
      7 C         142.2992  143.3038  164.8892 C.ar    1  UNL1        0.0391
      8 C         143.1453  142.3554  168.4909 C.3     1  UNL1        0.1306
      9 N         142.6315  141.1940  167.6927 N.ar    1  UNL1       -0.3216
     10 C         142.0276  139.9393  168.2502 C.ar    1  UNL1        0.1138
     11 C         141.6542  139.0532  167.0989 C.ar    1  UNL1        0.0233
     12 C         142.0275  139.7603  165.8298 C.ar    1  UNL1        0.0188
     13 C         142.6315  141.0834  166.1968 C.ar    1  UNL1        0.0601
     14 C         141.8313  139.6257  169.7039 C.2     1  UNL1        0.2587
     15 N         143.0208  139.4086  170.5916 N.am    1  UNL1       -0.3241
     16 O         140.4456  139.5292  170.2699 O.2     1  UNL1       -0.2688
     17 H         143.9304  139.4719  170.2201 H       1  UNL1        0.1453
     18 H         142.8920  139.2027  171.5456 H       1  UNL1        0.1453
     19 C         140.9853  145.4416  162.4506 C.2     1  UNL1        0.4062
     20 O         139.5136  145.5337  162.7263 O.2     1  UNL1       -0.2260
     21 N         141.4752  145.2669  161.0437 N.am    1  UNL1       -0.2689
     22 H         142.4410  145.2064  160.8627 H       1  UNL1        0.1528
     23 C         140.4935  145.1843  159.9124 C.3     1  UNL1        0.1100
     24 C         139.8525  143.8722  159.5700 C.3     1  UNL1        0.0938
     25 N         139.6031  142.8561  160.6449 N.3     1  UNL1       -0.2683
     26 C         140.7317  142.0076  161.1513 C.3     1  UNL1        0.0939
     27 C         140.4823  140.9916  162.2262 C.3     1  UNL1        0.1081
     28 N         139.1044  140.8240  162.7947 N.pl3   1  UNL1       -0.3046
     29 C         137.9759  141.6725  162.2884 C.3     1  UNL1        0.1081
     30 C         138.2252  142.6886  161.2134 C.3     1  UNL1        0.0939
     31 C         138.8550  139.8080  163.8696 C.ar    1  UNL1        0.0479
     32 C         138.2433  140.2295  165.1728 C.ar    1  UNL1        0.0145
     33 C         137.9939  139.2134  166.2477 C.ar    1  UNL1        0.0013
     34 C         138.3563  137.7759  166.0195 C.ar    1  UNL1        0.0001
     35 C         138.9680  137.3543  164.7164 C.ar    1  UNL1        0.0013
     36 C         139.2174  138.3704  163.6414 C.ar    1  UNL1        0.0145
@<TRIPOS>BOND
     1     8     9    1
     2     9    10   ar
     3    10    14    1
     4    14    15   am
     5    14    16    2
     6    10    11   ar
     7    11    12   ar
     8    12    13   ar
     9    13     2    1
    10     2     3   ar
    11     3     4   ar
    12     4     5   ar
    13     5     6   ar
    14     6     1    1
    15     1    19    1
    16    19    20    2
    17    19    21   am
    18    21    23    1
    19    23    24    1
    20    24    25    1
    21    25    26    1
    22    26    27    1
    23    27    28    1
    24    28    31    1
    25    31    32   ar
    26    32    33   ar
    27    33    34   ar
    28    34    35   ar
    29    35    36   ar
    30    28    29    1
    31    29    30    1
    32     6     7   ar
    33    13     9   ar
    34     7     2   ar
    35    30    25    1
    36    36    31   ar
    37    15    17    1
    38    15    18    1
    39    21    22    1
@<TRIPOS>MOLECULE
*****
 36 39 0 0 0
SMALL
GASTEIGER

@<TRIPOS>ATOM
      1 O         143.7092  144.3731  163.8622 O.3     1  UNL1       -0.4103
      2 C         143.0248  141.1386  166.0576 C.ar    1  UNL1        0.0188
      3 C         143.7809  140.1027  165.2797 C.ar    1  UNL1        0.0016
      4 C         144.5132  140.4903  164.0293 C.ar    1  UNL1        0.0032
      5 C         144.4892  141.9138  163.5568 C.ar    1  UNL1        0.0377
      6 C         143.7331  142.9496  164.3347 C.ar    1  UNL1        0.1501
      7 C         143.0009  142.5620  165.5851 C.ar    1  UNL1        0.0391
      8 C         140.3574  142.5941  167.2478 C.3     1  UNL1        0.1306
      9 N         141.0665  141.4201  167.8551 N.ar    1  UNL1       -0.3216
     10 C         140.6740  140.7089  169.1162 C.ar    1  UNL1        0.1138
     11 C         141.6575  139.6003  169.3485 C.ar    1  UNL1        0.0233
     12 C         142.6578  139.6264  168.2310 C.ar    1  UNL1        0.0188
     13 C         142.2925  140.7510  167.3081 C.ar    1  UNL1        0.0601
     14 C         139.5035  141.0470  169.9913 C.2     1  UNL1        0.2587
     15 N         138.4157  140.0380  170.2116 N.am    1  UNL1       -0.3241
     16 O         139.4209  142.3940  170.6460 O.2     1  UNL1       -0.2688
     17 H         138.4699  139.1539  169.7819 H       1  UNL1        0.1453
     18 H         137.6475  140.2599  170.7860 H       1  UNL1        0.1453
     19 C         142.6874  144.8121  162.8557 C.2     1  UNL1        0.4062
     20 O         142.8663  144.4685  161.4065 O.2     1  UNL1       -0.2260
     21 N         141.4868  145.5949  163.2982 N.am    1  UNL1       -0.2689
     22 H         141.3695  145.8205  164.2493 H       1  UNL1        0.1528
     23 C         140.4650  146.0340  162.2916 C.3     1  UNL1        0.1100
     24 C         139.3809  145.0902  161.8628 C.3     1  UNL1        0.0938
     25 N         139.1913  143.7885  162.5836 N.3     1  UNL1       -0.2683
     26 C         140.0164  142.5943  162.2050 C.3     1  UNL1        0.0939
     27 C         139.8268  141.2927  162.9258 C.3     1  UNL1        0.1081
     28 N         138.8121  141.1851  164.0253 N.pl3   1  UNL1       -0.3046
     29 C         137.9870  142.3791  164.4040 C.3     1  UNL1        0.1081
     30 C         138.1766  143.6809  163.6831 C.3     1  UNL1        0.0939
     31 C         138.6225  139.8834  164.7461 C.ar    1  UNL1        0.0479
     32 C         139.0039  138.5946  164.0800 C.ar    1  UNL1        0.0145
     33 C         138.8143  137.2930  164.8008 C.ar    1  UNL1        0.0013
     34 C         138.2433  137.2800  166.1878 C.ar    1  UNL1        0.0001
     35 C         137.8619  138.5686  166.8540 C.ar    1  UNL1        0.0013
     36 C         138.0515  139.8704  166.1331 C.ar    1  UNL1        0.0145
@<TRIPOS>BOND
     1     8     9    1
     2     9    10   ar
     3    10    14    1
     4    14    15   am
     5    14    16    2
     6    10    11   ar
     7    11    12   ar
     8    12    13   ar
     9    13     2    1
    10     2     3   ar
    11     3     4   ar
    12     4     5   ar
    13     5     6   ar
    14     6     1    1
    15     1    19    1
    16    19    20    2
    17    19    21   am
    18    21    23    1
    19    23    24    1
    20    24    25    1
    21    25    26    1
    22    26    27    1
    23    27    28    1
    24    28    31    1
    25    31    32   ar
    26    32    33   ar
    27    33    34   ar
    28    34    35   ar
    29    35    36   ar
    30    28    29    1
    31    29    30    1
    32     6     7   ar
    33    13     9   ar
    34     7     2   ar
    35    30    25    1
    36    36    31   ar
    37    15    17    1
    38    15    18    1
    39    21    22    1
@<TRIPOS>MOLECULE
*****
 36 39 0 0 0
SMALL
GASTEIGER

@<TRIPOS>ATOM
      1 O         144.7921  139.2095  163.5226 O.3     1  UNL1       -0.4103
      2 C         142.7384  141.0756  166.3598 C.ar    1  UNL1        0.0188
      3 C         143.3003  142.4621  166.2512 C.ar    1  UNL1        0.0016
      4 C         144.3595  142.7644  165.2330 C.ar    1  UNL1        0.0032
      5 C         144.8568  141.6802  164.3235 C.ar    1  UNL1        0.0377
      6 C         144.2948  140.2937  164.4321 C.ar    1  UNL1        0.1501
      7 C         143.2356  139.9914  165.4503 C.ar    1  UNL1        0.0391
      8 C         143.1218  141.1278  169.6002 C.3     1  UNL1        0.1306
      9 N         141.8554  140.7973  168.8674 N.ar    1  UNL1       -0.3216
     10 C         140.5429  140.4327  169.4954 C.ar    1  UNL1        0.1138
     11 C         139.5554  140.1833  168.3941 C.ar    1  UNL1        0.0233
     12 C         140.2577  140.3938  167.0855 C.ar    1  UNL1        0.0188
     13 C         141.6791  140.7733  167.3780 C.ar    1  UNL1        0.0601
     14 C         140.2663  140.3346  170.9665 C.2     1  UNL1        0.2587
     15 N         139.6795  139.0777  171.5372 N.am    1  UNL1       -0.3241
     16 O         140.5766  141.4935  171.8668 O.2     1  UNL1       -0.2688
     17 H         139.4759  138.3170  170.9463 H       1  UNL1        0.1453
     18 H         139.4980  139.0133  172.5027 H       1  UNL1        0.1453
     19 C         144.1903  139.0396  162.1592 C.2     1  UNL1        0.4062
     20 O         144.3197  140.1332  161.1406 O.2     1  UNL1       -0.2260
     21 N         143.4590  137.7762  161.8143 N.am    1  UNL1       -0.2689
     22 H         143.3740  137.0584  162.4828 H       1  UNL1        0.1528
     23 C         142.8571  137.6063  160.4508 C.3     1  UNL1        0.1100
     24 C         141.5270  138.2240  160.1359 C.3     1  UNL1        0.0938
     25 N         140.9776  139.3096  161.0132 N.3     1  UNL1       -0.2683
     26 C         141.0587  140.7417  160.5742 C.3     1  UNL1        0.0939
     27 C         140.5093  141.8273  161.4515 C.3     1  UNL1        0.1081
     28 N         139.8789  141.4809  162.7677 N.pl3   1  UNL1       -0.3046
     29 C         139.7978  140.0489  163.2067 C.3     1  UNL1        0.1081
     30 C         140.3472  138.9632  162.3295 C.3     1  UNL1        0.0939
     31 C         139.3296  142.5665  163.6450 C.ar    1  UNL1        0.0479
     32 C         137.8718  142.9148  163.5835 C.ar    1  UNL1        0.0145
     33 C         137.3225  144.0004  164.4608 C.ar    1  UNL1        0.0013
     34 C         138.2308  144.7377  165.3996 C.ar    1  UNL1        0.0001
     35 C         139.6885  144.3894  165.4611 C.ar    1  UNL1        0.0013
     36 C         140.2379  143.3038  164.5838 C.ar    1  UNL1        0.0145
@<TRIPOS>BOND
     1     8     9    1
     2     9    10   ar
     3    10    14    1
     4    14    15   am
     5    14    16    2
     6    10    11   ar
     7    11    12   ar
     8    12    13   ar
     9    13     2    1
    10     2     3   ar
    11     3     4   ar
    12     4     5   ar
    13     5     6   ar
    14     6     1    1
    15     1    19    1
    16    19    20    2
    17    19    21   am
    18    21    23    1
    19    23    24    1
    20    24    25    1
    21    25    26    1
    22    26    27    1
    23    27    28    1
    24    28    31    1
    25    31    32   ar
    26    32    33   ar
    27    33    34   ar
    28    34    35   ar
    29    35    36   ar
    30    28    29    1
    31    29    30    1
    32     6     7   ar
    33    13     9   ar
    34     7     2   ar
    35    30    25    1
    36    36    31   ar
    37    15    17    1
    38    15    18    1
    39    21    22    1
@<TRIPOS>MOLECULE
*****
 36 39 0 0 0
SMALL
GASTEIGER

@<TRIPOS>ATOM
      1 O         144.0779  144.1194  163.2883 O.3     1  UNL1       -0.4103
      2 C         141.5535  142.6824  165.9924 C.ar    1  UNL1        0.0188
      3 C         140.3102  143.4514  165.6565 C.ar    1  UNL1        0.0016
      4 C         140.3228  144.4430  164.5312 C.ar    1  UNL1        0.0032
      5 C         141.5787  144.6657  163.7418 C.ar    1  UNL1        0.0377
      6 C         142.8220  143.8967  164.0777 C.ar    1  UNL1        0.1501
      7 C         142.8094  142.9051  165.2030 C.ar    1  UNL1        0.0391
      8 C         140.5343  143.2518  169.0398 C.3     1  UNL1        0.1306
      9 N         141.0724  141.9524  168.5185 N.ar    1  UNL1       -0.3216
     10 C         141.2366  140.6865  169.3063 C.ar    1  UNL1        0.1138
     11 C         141.8066  139.6424  168.3925 C.ar    1  UNL1        0.0233
     12 C         141.9947  140.2630  167.0399 C.ar    1  UNL1        0.0188
     13 C         141.5409  141.6906  167.1178 C.ar    1  UNL1        0.0601
     14 C         140.8914  140.4979  170.7538 C.2     1  UNL1        0.2587
     15 N         139.8469  139.4976  171.1516 N.am    1  UNL1       -0.3241
     16 O         141.5908  141.3096  171.8036 O.2     1  UNL1       -0.2688
     17 H         139.3878  138.9649  170.4626 H       1  UNL1        0.1453
     18 H         139.6203  139.3738  172.1017 H       1  UNL1        0.1453
     19 C         144.4804  143.1390  162.2269 C.2     1  UNL1        0.4062
     20 O         145.4756  142.0611  162.5400 O.2     1  UNL1       -0.2260
     21 N         143.8877  143.2362  160.8524 N.am    1  UNL1       -0.2689
     22 H         143.2346  143.9436  160.6469 H       1  UNL1        0.1528
     23 C         144.2903  142.2557  159.7910 C.3     1  UNL1        0.1100
     24 C         143.6010  140.9267  159.6974 C.3     1  UNL1        0.0938
     25 N         142.6737  140.4841  160.7902 N.3     1  UNL1       -0.2683
     26 C         141.2364  140.9131  160.7738 C.3     1  UNL1        0.0939
     27 C         140.3091  140.4706  161.8666 C.3     1  UNL1        0.1081
     28 N         140.8191  139.5990  162.9758 N.pl3   1  UNL1       -0.3046
     29 C         142.2563  139.1701  162.9923 C.3     1  UNL1        0.1081
     30 C         143.1837  139.6126  161.8994 C.3     1  UNL1        0.0939
     31 C         139.8918  139.1565  164.0687 C.ar    1  UNL1        0.0479
     32 C         139.8035  137.7046  164.4352 C.ar    1  UNL1        0.0145
     33 C         138.8762  137.2620  165.5280 C.ar    1  UNL1        0.0013
     34 C         138.0373  138.2713  166.2543 C.ar    1  UNL1        0.0001
     35 C         138.1256  139.7231  165.8878 C.ar    1  UNL1        0.0013
     36 C         139.0529  140.1658  164.7950 C.ar    1  UNL1        0.0145
@<TRIPOS>BOND
     1     8     9    1
     2     9    10   ar
     3    10    14    1
     4    14    15   am
     5    14    16    2
     6    10    11   ar
     7    11    12   ar
     8    12    13   ar
     9    13     2    1
    10     2     3   ar
    11     3     4   ar
    12     4     5   ar
    13     5     6   ar
    14     6     1    1
    15     1    19    1
    16    19    20    2
    17    19    21   am
    18    21    23    1
    19    23    24    1
    20    24    25    1
    21    25    26    1
    22    26    27    1
    23    27    28    1
    24    28    31    1
    25    31    32   ar
    26    32    33   ar
    27    33    34   ar
    28    34    35   ar
    29    35    36   ar
    30    28    29    1
    31    29    30    1
    32     6     7   ar
    33    13     9   ar
    34     7     2   ar
    35    30    25    1
    36    36    31   ar
    37    15    17    1
    38    15    18    1
    39    21    22    1
@<TRIPOS>MOLECULE
*****
 36 39 0 0 0
SMALL
GASTEIGER

@<TRIPOS>ATOM
      1 O         141.0526  145.8887  163.3377 O.3     1  UNL1       -0.4103
      2 C         141.9120  142.6547  165.4714 C.ar    1  UNL1        0.0188
      3 C         143.3657  142.4789  165.1466 C.ar    1  UNL1        0.0016
      4 C         144.0485  143.4396  164.2188 C.ar    1  UNL1        0.0032
      5 C         143.2774  144.5763  163.6159 C.ar    1  UNL1        0.0377
      6 C         141.8236  144.7521  163.9407 C.ar    1  UNL1        0.1501
      7 C         141.1409  143.7913  164.8684 C.ar    1  UNL1        0.0391
      8 C         142.6680  142.1489  168.6055 C.3     1  UNL1        0.1306
      9 N         141.5767  141.4614  167.8397 N.ar    1  UNL1       -0.3216
     10 C         140.6413  140.4208  168.3801 C.ar    1  UNL1        0.1138
     11 C         139.7156  140.0101  167.2735 C.ar    1  UNL1        0.0233
     12 C         140.0789  140.7969  166.0492 C.ar    1  UNL1        0.0188
     13 C         141.2292  141.6939  166.3992 C.ar    1  UNL1        0.0601
     14 C         140.6330  139.8849  169.7811 C.2     1  UNL1        0.2587
     15 N         141.8417  139.1802  170.3217 N.am    1  UNL1       -0.3241
     16 O         139.4159  140.0537  170.6414 O.2     1  UNL1       -0.2688
     17 H         142.6405  139.0694  169.7571 H       1  UNL1        0.1453
     18 H         141.8362  138.8285  171.2413 H       1  UNL1        0.1453
     19 C         140.3695  145.7129  162.0139 C.2     1  UNL1        0.4062
     20 O         138.8714  145.6989  161.9389 O.2     1  UNL1       -0.2260
     21 N         141.1845  145.5510  160.7651 N.am    1  UNL1       -0.2689
     22 H         142.1678  145.5602  160.8143 H       1  UNL1        0.1528
     23 C         140.5014  145.3752  159.4412 C.3     1  UNL1        0.1100
     24 C         140.0173  144.0190  159.0214 C.3     1  UNL1        0.0938
     25 N         140.1276  142.8581  159.9648 N.3     1  UNL1       -0.2683
     26 C         138.9575  142.4737  160.8211 C.3     1  UNL1        0.0939
     27 C         139.0678  141.3128  161.7645 C.3     1  UNL1        0.1081
     28 N         140.3481  140.5362  161.8517 N.pl3   1  UNL1       -0.3046
     29 C         141.5182  140.9205  160.9954 C.3     1  UNL1        0.1081
     30 C         141.4079  142.0815  160.0519 C.3     1  UNL1        0.0939
     31 C         140.4585  139.3752  162.7951 C.ar    1  UNL1        0.0479
     32 C         139.2382  138.5779  163.1490 C.ar    1  UNL1        0.0145
     33 C         139.3485  137.4169  164.0924 C.ar    1  UNL1        0.0013
     34 C         140.6790  137.0533  164.6819 C.ar    1  UNL1        0.0001
     35 C         141.8993  137.8506  164.3280 C.ar    1  UNL1        0.0013
     36 C         141.7890  139.0116  163.3845 C.ar    1  UNL1        0.0145
@<TRIPOS>BOND
     1     8     9    1
     2     9    10   ar
     3    10    14    1
     4    14    15   am
     5    14    16    2
     6    10    11   ar
     7    11    12   ar
     8    12    13   ar
     9    13     2    1
    10     2     3   ar
    11     3     4   ar
    12     4     5   ar
    13     5     6   ar
    14     6     1    1
    15     1    19    1
    16    19    20    2
    17    19    21   am
    18    21    23    1
    19    23    24    1
    20    24    25    1
    21    25    26    1
    22    26    27    1
    23    27    28    1
    24    28    31    1
    25    31    32   ar
    26    32    33   ar
    27    33    34   ar
    28    34    35   ar
    29    35    36   ar
    30    28    29    1
    31    29    30    1
    32     6     7   ar
    33    13     9   ar
    34     7     2   ar
    35    30    25    1
    36    36    31   ar
    37    15    17    1
    38    15    18    1
    39    21    22    1
@<TRIPOS>MOLECULE
*****
 36 39 0 0 0
SMALL
GASTEIGER

@<TRIPOS>ATOM
      1 O         143.2315  144.6570  162.7916 O.3     1  UNL1       -0.4103
      2 C         143.6700  141.7702  165.4793 C.ar    1  UNL1        0.0188
      3 C         144.4644  140.7695  164.6934 C.ar    1  UNL1        0.0016
      4 C         144.8478  141.0647  163.2736 C.ar    1  UNL1        0.0032
      5 C         144.4368  142.3605  162.6397 C.ar    1  UNL1        0.0377
      6 C         143.6424  143.3612  163.4255 C.ar    1  UNL1        0.1501
      7 C         143.2591  143.0660  164.8453 C.ar    1  UNL1        0.0391
      8 C         142.7922  138.8587  166.6636 C.3     1  UNL1        0.1306
      9 N         142.8831  140.1368  167.4435 N.ar    1  UNL1       -0.3216
     10 C         142.5865  140.3011  168.9047 C.ar    1  UNL1        0.1138
     11 C         142.8067  141.7408  169.2634 C.ar    1  UNL1        0.0233
     12 C         143.2394  142.4664  168.0239 C.ar    1  UNL1        0.0188
     13 C         143.2866  141.4750  166.8991 C.ar    1  UNL1        0.0601
     14 C         142.1469  139.2160  169.8425 C.2     1  UNL1        0.2587
     15 N         140.8166  139.3114  170.5289 N.am    1  UNL1       -0.3241
     16 O         143.0376  138.0356  170.0940 O.2     1  UNL1       -0.2688
     17 H         140.2320  140.0862  170.3639 H       1  UNL1        0.1453
     18 H         140.5281  138.5993  171.1444 H       1  UNL1        0.1453
     19 C         141.8860  144.7797  162.1399 C.2     1  UNL1        0.4062
     20 O         141.3855  143.6878  161.2414 O.2     1  UNL1       -0.2260
     21 N         141.0411  145.9942  162.3867 N.am    1  UNL1       -0.2689
     22 H         141.3695  146.7109  162.9765 H       1  UNL1        0.1528
     23 C         139.6956  146.1169  161.7350 C.3     1  UNL1        0.1100
     24 C         138.4763  145.5814  162.4254 C.3     1  UNL1        0.0938
     25 N         138.4763  144.1843  162.9715 N.3     1  UNL1       -0.2683
     26 C         138.0810  143.0353  162.0920 C.3     1  UNL1        0.0939
     27 C         138.0810  141.6382  162.6381 C.3     1  UNL1        0.1081
     28 N         138.4764  141.3902  164.0636 N.pl3   1  UNL1       -0.3046
     29 C         138.8718  142.5392  164.9431 C.3     1  UNL1        0.1081
     30 C         138.8717  143.9363  164.3970 C.3     1  UNL1        0.0939
     31 C         138.4765  139.9932  164.6097 C.ar    1  UNL1        0.0479
     32 C         138.9443  138.8534  163.7540 C.ar    1  UNL1        0.0145
     33 C         138.9443  137.4564  164.3001 C.ar    1  UNL1        0.0013
     34 C         138.4766  137.1990  165.7019 C.ar    1  UNL1        0.0001
     35 C         138.0089  138.3387  166.5576 C.ar    1  UNL1        0.0013
     36 C         138.0088  139.7358  166.0115 C.ar    1  UNL1        0.0145
@<TRIPOS>BOND
     1     8     9    1
     2     9    10   ar
     3    10    14    1
     4    14    15   am
     5    14    16    2
     6    10    11   ar
     7    11    12   ar
     8    12    13   ar
     9    13     2    1
    10     2     3   ar
    11     3     4   ar
    12     4     5   ar
    13     5     6   ar
    14     6     1    1
    15     1    19    1
    16    19    20    2
    17    19    21   am
    18    21    23    1
    19    23    24    1
    20    24    25    1
    21    25    26    1
    22    26    27    1
    23    27    28    1
    24    28    31    1
    25    31    32   ar
    26    32    33   ar
    27    33    34   ar
    28    34    35   ar
    29    35    36   ar
    30    28    29    1
    31    29    30    1
    32     6     7   ar
    33    13     9   ar
    34     7     2   ar
    35    30    25    1
    36    36    31   ar
    37    15    17    1
    38    15    18    1
    39    21    22    1
@<TRIPOS>MOLECULE
*****
 36 39 0 0 0
SMALL
GASTEIGER

@<TRIPOS>ATOM
      1 O         137.4670  142.0976  161.5330 O.3     1  UNL1       -0.4103
      2 C         140.3557  143.1843  164.0277 C.ar    1  UNL1        0.0188
      3 C         139.7974  144.4683  164.5659 C.ar    1  UNL1        0.0016
      4 C         138.4622  144.9619  164.0932 C.ar    1  UNL1        0.0032
      5 C         137.6854  144.1717  163.0822 C.ar    1  UNL1        0.0377
      6 C         138.2438  142.8878  162.5440 C.ar    1  UNL1        0.1501
      7 C         139.5789  142.3941  163.0167 C.ar    1  UNL1        0.0391
      8 C         142.6216  141.7233  162.1889 C.3     1  UNL1        0.1306
      9 N         142.7324  142.0190  163.6552 N.ar    1  UNL1       -0.3216
     10 C         143.9042  141.6951  164.5338 C.ar    1  UNL1        0.1138
     11 C         143.5870  142.1665  165.9221 C.ar    1  UNL1        0.0233
     12 C         142.2192  142.7817  165.9014 C.ar    1  UNL1        0.0188
     13 C         141.6910  142.6906  164.5005 C.ar    1  UNL1        0.0601
     14 C         145.1709  141.0186  164.1003 C.2     1  UNL1        0.2587
     15 N         146.2843  141.8249  163.5000 N.am    1  UNL1       -0.3241
     16 O         145.3242  139.5358  164.2671 O.2     1  UNL1       -0.2688
     17 H         146.1837  142.7981  163.3906 H       1  UNL1        0.1453
     18 H         147.1156  141.3808  163.2155 H       1  UNL1        0.1453
     19 C         137.7973  140.6540  161.2947 C.2     1  UNL1        0.4062
     20 O         138.2376  140.1999  159.9345 O.2     1  UNL1       -0.2260
     21 N         137.6875  139.6644  162.4166 N.am    1  UNL1       -0.2689
     22 H         137.3985  139.9624  163.3093 H       1  UNL1        0.1528
     23 C         138.0179  138.2207  162.1783 C.3     1  UNL1        0.1100
     24 C         138.7661  137.4410  163.2185 C.3     1  UNL1        0.0938
     25 N         139.3251  138.1402  164.4220 N.3     1  UNL1       -0.2683
     26 C         138.4183  138.5302  165.5515 C.3     1  UNL1        0.0939
     27 C         138.9773  139.2295  166.7550 C.3     1  UNL1        0.1081
     28 N         140.4431  139.5388  166.8292 N.pl3   1  UNL1       -0.3046
     29 C         141.3500  139.1489  165.6998 C.3     1  UNL1        0.1081
     30 C         140.7910  138.4496  164.4962 C.3     1  UNL1        0.0939
     31 C         141.0022  140.2381  168.0327 C.ar    1  UNL1        0.0479
     32 C         140.2312  141.3507  168.6791 C.ar    1  UNL1        0.0145
     33 C         140.7902  142.0500  169.8826 C.ar    1  UNL1        0.0013
     34 C         142.1202  141.6367  170.4398 C.ar    1  UNL1        0.0001
     35 C         142.8911  140.5242  169.7934 C.ar    1  UNL1        0.0013
     36 C         142.3321  139.8248  168.5898 C.ar    1  UNL1        0.0145
@<TRIPOS>BOND
     1     8     9    1
     2     9    10   ar
     3    10    14    1
     4    14    15   am
     5    14    16    2
     6    10    11   ar
     7    11    12   ar
     8    12    13   ar
     9    13     2    1
    10     2     3   ar
    11     3     4   ar
    12     4     5   ar
    13     5     6   ar
    14     6     1    1
    15     1    19    1
    16    19    20    2
    17    19    21   am
    18    21    23    1
    19    23    24    1
    20    24    25    1
    21    25    26    1
    22    26    27    1
    23    27    28    1
    24    28    31    1
    25    31    32   ar
    26    32    33   ar
    27    33    34   ar
    28    34    35   ar
    29    35    36   ar
    30    28    29    1
    31    29    30    1
    32     6     7   ar
    33    13     9   ar
    34     7     2   ar
    35    30    25    1
    36    36    31   ar
    37    15    17    1
    38    15    18    1
    39    21    22    1
@<TRIPOS>MOLECULE
*****
 36 39 0 0 0
SMALL
GASTEIGER

@<TRIPOS>ATOM
      1 O         141.6949  137.1383  164.1178 O.3     1  UNL1       -0.4103
      2 C         139.9897  139.6303  166.6930 C.ar    1  UNL1        0.0188
      3 C         138.5785  139.1219  166.6875 C.ar    1  UNL1        0.0016
      4 C         138.2062  137.9522  165.8255 C.ar    1  UNL1        0.0032
      5 C         139.2450  137.2911  164.9689 C.ar    1  UNL1        0.0377
      6 C         140.6561  137.7995  164.9744 C.ar    1  UNL1        0.1501
      7 C         141.0285  138.9692  165.8365 C.ar    1  UNL1        0.0391
      8 C         141.1008  139.4778  169.7577 C.3     1  UNL1        0.1306
      9 N         140.8728  140.7299  168.9638 N.ar    1  UNL1       -0.3216
     10 C         141.1155  142.1317  169.4392 C.ar    1  UNL1        0.1138
     11 C         140.7548  143.0683  168.3243 C.ar    1  UNL1        0.0233
     12 C         140.2892  142.2452  167.1600 C.ar    1  UNL1        0.0188
     13 C         140.3621  140.8000  167.5552 C.ar    1  UNL1        0.0601
     14 C         141.6288  142.5276  170.7919 C.2     1  UNL1        0.2587
     15 N         142.9439  143.2382  170.9166 N.am    1  UNL1       -0.3241
     16 O         140.8271  142.2127  172.0199 O.2     1  UNL1       -0.2688
     17 H         143.4701  143.4449  170.1107 H       1  UNL1        0.1453
     18 H         143.2807  143.4980  171.8045 H       1  UNL1        0.1453
     19 C         141.7703  137.4528  162.6531 C.2     1  UNL1        0.4062
     20 O         140.5146  137.5221  161.8353 O.2     1  UNL1       -0.2260
     21 N         143.1012  137.6980  162.0061 N.am    1  UNL1       -0.2689
     22 H         143.9252  137.6525  162.5428 H       1  UNL1        0.1528
     23 C         143.1764  138.0124  160.5413 C.3     1  UNL1        0.1100
     24 C         142.7797  139.3710  160.0445 C.3     1  UNL1        0.0938
     25 N         141.9786  140.2861  160.9224 N.3     1  UNL1       -0.2683
     26 C         140.5250  140.5192  160.6345 C.3     1  UNL1        0.0939
     27 C         139.7238  141.4343  161.5124 C.3     1  UNL1        0.1081
     28 N         140.3762  142.1164  162.6783 N.pl3   1  UNL1       -0.3046
     29 C         141.8297  141.8833  162.9662 C.3     1  UNL1        0.1081
     30 C         142.6309  140.9682  162.0883 C.3     1  UNL1        0.0939
     31 C         139.5751  143.0315  163.5562 C.ar    1  UNL1        0.0479
     32 C         138.1424  142.7110  163.8643 C.ar    1  UNL1        0.0145
     33 C         137.3413  143.6261  164.7422 C.ar    1  UNL1        0.0013
     34 C         137.9728  144.8617  165.3120 C.ar    1  UNL1        0.0001
     35 C         139.4053  145.1821  165.0039 C.ar    1  UNL1        0.0013
     36 C         140.2065  144.2670  164.1259 C.ar    1  UNL1        0.0145
@<TRIPOS>BOND
     1     8     9    1
     2     9    10   ar
     3    10    14    1
     4    14    15   am
     5    14    16    2
     6    10    11   ar
     7    11    12   ar
     8    12    13   ar
     9    13     2    1
    10     2     3   ar
    11     3     4   ar
    12     4     5   ar
    13     5     6   ar
    14     6     1    1
    15     1    19    1
    16    19    20    2
    17    19    21   am
    18    21    23    1
    19    23    24    1
    20    24    25    1
    21    25    26    1
    22    26    27    1
    23    27    28    1
    24    28    31    1
    25    31    32   ar
    26    32    33   ar
    27    33    34   ar
    28    34    35   ar
    29    35    36   ar
    30    28    29    1
    31    29    30    1
    32     6     7   ar
    33    13     9   ar
    34     7     2   ar
    35    30    25    1
    36    36    31   ar
    37    15    17    1
    38    15    18    1
    39    21    22    1
@<TRIPOS>MOLECULE
*****
 36 39 0 0 0
SMALL
GASTEIGER

@<TRIPOS>ATOM
      1 O         138.7969  138.0461  162.9405 O.3     1  UNL1       -0.4103
      2 C         139.6083  140.2457  166.1426 C.ar    1  UNL1        0.0188
      3 C         139.2286  141.6114  165.6521 C.ar    1  UNL1        0.0016
      4 C         138.7050  141.7886  164.2577 C.ar    1  UNL1        0.0032
      5 C         138.5611  140.6002  163.3538 C.ar    1  UNL1        0.0377
      6 C         138.9408  139.2345  163.8443 C.ar    1  UNL1        0.1501
      7 C         139.4644  139.0573  165.2387 C.ar    1  UNL1        0.0391
      8 C         142.6422  139.3585  166.9540 C.3     1  UNL1        0.1306
      9 N         141.5264  139.6606  167.9100 N.ar    1  UNL1       -0.3216
     10 C         141.6093  139.6079  169.4068 C.ar    1  UNL1        0.1138
     11 C         140.2660  139.9831  169.9589 C.ar    1  UNL1        0.0233
     12 C         139.3530  140.2677  168.8033 C.ar    1  UNL1        0.0188
     13 C         140.1319  140.0684  167.5370 C.ar    1  UNL1        0.0601
     14 C         142.8225  139.2439  170.2104 C.2     1  UNL1        0.2587
     15 N         143.6016  140.3125  170.9182 N.am    1  UNL1       -0.3241
     16 O         143.2565  137.8113  170.3061 O.2     1  UNL1       -0.2688
     17 H         143.3167  141.2528  170.8554 H       1  UNL1        0.1453
     18 H         144.3978  140.0736  171.4456 H       1  UNL1        0.1453
     19 C         139.5895  137.9704  161.6692 C.2     1  UNL1        0.4062
     20 O         140.9718  137.3880  161.6807 O.2     1  UNL1       -0.2260
     21 N         138.9998  138.4771  160.3864 N.am    1  UNL1       -0.2689
     22 H         138.0925  138.8593  160.3789 H       1  UNL1        0.1528
     23 C         139.7924  138.4013  159.1152 C.3     1  UNL1        0.1100
     24 C         140.7423  139.5055  158.7566 C.3     1  UNL1        0.0938
     25 N         141.3435  140.3573  159.8350 N.3     1  UNL1       -0.2683
     26 C         142.6743  139.9931  160.4239 C.3     1  UNL1        0.0939
     27 C         143.2755  140.8449  161.5023 C.3     1  UNL1        0.1081
     28 N         142.5462  142.0608  161.9918 N.pl3   1  UNL1       -0.3046
     29 C         141.2155  142.4249  161.4030 C.3     1  UNL1        0.1081
     30 C         140.6142  141.5731  160.3246 C.3     1  UNL1        0.0939
     31 C         143.1474  142.9125  163.0702 C.ar    1  UNL1        0.0479
     32 C         143.7561  142.2701  164.2815 C.ar    1  UNL1        0.0145
     33 C         144.3573  143.1219  165.3599 C.ar    1  UNL1        0.0013
     34 C         144.3500  144.6160  165.2271 C.ar    1  UNL1        0.0001
     35 C         143.7415  145.2583  164.0159 C.ar    1  UNL1        0.0013
     36 C         143.1401  144.4066  162.9375 C.ar    1  UNL1        0.0145
@<TRIPOS>BOND
     1     8     9    1
     2     9    10   ar
     3    10    14    1
     4    14    15   am
     5    14    16    2
     6    10    11   ar
     7    11    12   ar
     8    12    13   ar
     9    13     2    1
    10     2     3   ar
    11     3     4   ar
    12     4     5   ar
    13     5     6   ar
    14     6     1    1
    15     1    19    1
    16    19    20    2
    17    19    21   am
    18    21    23    1
    19    23    24    1
    20    24    25    1
    21    25    26    1
    22    26    27    1
    23    27    28    1
    24    28    31    1
    25    31    32   ar
    26    32    33   ar
    27    33    34   ar
    28    34    35   ar
    29    35    36   ar
    30    28    29    1
    31    29    30    1
    32     6     7   ar
    33    13     9   ar
    34     7     2   ar
    35    30    25    1
    36    36    31   ar
    37    15    17    1
    38    15    18    1
    39    21    22    1
