@<TRIPOS>MOLECULE
*****
 35 38 0 0 0
SMALL
GASTEIGER

@<TRIPOS>ATOM
      1 C         142.0099  143.8958  162.1107 C.3     1  UNL1        0.1751
      2 C         142.0862  144.0072  160.6168 C.ar    1  UNL1        0.0089
      3 C         142.9543  143.3236  159.6024 C.ar    1  UNL1       -0.0021
      4 C         142.8004  143.6446  158.1453 C.ar    1  UNL1       -0.0003
      5 C         141.7783  144.6493  157.7026 C.ar    1  UNL1        0.0001
      6 C         140.9102  145.3330  158.7170 C.ar    1  UNL1        0.0043
      7 C         141.0642  145.0119  160.1741 C.ar    1  UNL1        0.0516
      8 C         140.3562  145.5214  161.3944 C.2     1  UNL1        0.2493
      9 O         139.2568  146.5416  161.4143 O.2     1  UNL1       -0.2699
     10 N         140.9407  144.8317  162.5913 N.am    1  UNL1       -0.2657
     11 O         144.2903  143.3536  163.2313 O.2     1  UNL1       -0.2729
     12 C         142.8546  143.0050  162.9727 C.2     1  UNL1        0.2451
     13 N         142.2634  141.7654  163.5761 N.am    1  UNL1       -0.2988
     14 H         141.3210  141.5365  163.4063 H       1  UNL1        0.1498
     15 C         143.1080  140.8745  164.4380 C.3     1  UNL1        0.1179
     16 C         142.9715  140.9269  165.9309 C.ar    1  UNL1        0.0168
     17 C         142.7200  139.6674  166.7057 C.ar    1  UNL1        0.0037
     18 C         142.5836  139.7199  168.1986 C.ar    1  UNL1        0.0574
     19 C         142.6986  141.0318  168.9167 C.ar    1  UNL1        0.2251
     20 N         142.9501  142.2913  168.1418 N.ar    1  UNL1       -0.2104
     21 C         143.0866  142.2389  166.6489 C.ar    1  UNL1        0.0994
     22 O         142.5622  141.0842  170.4095 O.3     1  UNL1       -0.4509
     23 C         141.2346  141.4033  171.0306 C.3     1  UNL1        0.3095
     24 C         139.9675  140.9599  170.3613 C.3     1  UNL1        0.4381
     25 F         138.7005  140.5165  169.6921 F       1  UNL1       -0.1663
     26 F         140.2765  139.5364  170.7195 F       1  UNL1       -0.1663
     27 F         139.6586  142.3834  170.0032 F       1  UNL1       -0.1663
     28 C         140.5284  145.0410  164.0183 C.3     1  UNL1        0.1007
     29 C         139.1891  144.5581  164.4905 C.3     1  UNL1        0.0673
     30 C         138.8421  143.1017  164.3993 C.ar    1  UNL1        0.0607
     31 C         137.8062  142.6375  163.4187 C.ar    1  UNL1        0.0148
     32 C         137.4591  141.1811  163.3274 C.ar    1  UNL1        0.0028
     33 C         138.1480  140.1888  164.2167 C.ar    1  UNL1        0.0207
     34 C         139.1839  140.6529  165.1973 C.ar    1  UNL1        0.0984
     35 N         139.5309  142.1094  165.2885 N.ar    1  UNL1       -0.2481
@<TRIPOS>BOND
     1    11    12    2
     2    12    13   am
     3    13    15    1
     4    15    16    1
     5    16    17   ar
     6    17    18   ar
     7    18    19   ar
     8    19    22    1
     9    22    23    1
    10    23    24    1
    11    24    25    1
    12    24    26    1
    13    24    27    1
    14    19    20   ar
    15    20    21   ar
    16    12     1    1
    17     1     2    1
    18     2     3   ar
    19     3     4   ar
    20     4     5   ar
    21     5     6   ar
    22     6     7   ar
    23     7     8    1
    24     8     9    2
    25     8    10   am
    26    10    28    1
    27    28    29    1
    28    29    30    1
    29    30    31   ar
    30    31    32   ar
    31    32    33   ar
    32    33    34   ar
    33    34    35   ar
    34    21    16   ar
    35    10     1    1
    36    35    30   ar
    37     7     2   ar
    38    13    14    1
@<TRIPOS>MOLECULE
*****
 35 38 0 0 0
SMALL
GASTEIGER

@<TRIPOS>ATOM
      1 C         142.7337  142.6987  164.9351 C.3     1  UNL1        0.1751
      2 C         141.6398  143.5228  164.3233 C.ar    1  UNL1        0.0089
      3 C         140.2538  143.8561  164.7898 C.ar    1  UNL1       -0.0021
      4 C         139.3668  144.7232  163.9463 C.ar    1  UNL1       -0.0003
      5 C         139.8660  145.2570  162.6364 C.ar    1  UNL1        0.0001
      6 C         141.2521  144.9236  162.1699 C.ar    1  UNL1        0.0043
      7 C         142.1390  144.0566  163.0134 C.ar    1  UNL1        0.0516
      8 C         143.5414  143.5623  162.8156 C.2     1  UNL1        0.2493
      9 O         144.4216  143.8558  161.6370 O.2     1  UNL1       -0.2699
     10 N         143.9089  142.7231  164.0033 N.am    1  UNL1       -0.2657
     11 O         142.5730  142.7545  167.5276 O.2     1  UNL1       -0.2729
     12 C         142.6645  141.9769  166.2482 C.2     1  UNL1        0.2451
     13 N         142.6868  140.4774  166.2819 N.am    1  UNL1       -0.2988
     14 H         142.7468  139.9670  165.4422 H       1  UNL1        0.1498
     15 C         142.6176  139.7556  167.5950 C.3     1  UNL1        0.1179
     16 C         141.3451  139.7638  168.3891 C.ar    1  UNL1        0.0168
     17 C         141.3948  139.8708  169.8844 C.ar    1  UNL1        0.0037
     18 C         140.1223  139.8791  170.6785 C.ar    1  UNL1        0.0574
     19 C         138.7999  139.7804  169.9773 C.ar    1  UNL1        0.2251
     20 N         138.7502  139.6734  168.4819 N.ar    1  UNL1       -0.2104
     21 C         140.0228  139.6651  167.6878 C.ar    1  UNL1        0.0994
     22 O         137.5275  139.7887  170.7714 O.3     1  UNL1       -0.4509
     23 C         136.6322  138.5851  170.7662 C.3     1  UNL1        0.3095
     24 C         135.7360  138.3120  171.9376 C.3     1  UNL1        0.4381
     25 F         134.8398  138.0388  173.1090 F       1  UNL1       -0.1663
     26 F         136.0404  136.8472  171.8290 F       1  UNL1       -0.1663
     27 F         135.4316  139.7767  172.0463 F       1  UNL1       -0.1663
     28 C         145.2213  142.0300  164.2210 C.3     1  UNL1        0.1007
     29 C         145.4385  140.6481  163.6797 C.3     1  UNL1        0.0673
     30 C         144.3217  139.9332  162.9785 C.ar    1  UNL1        0.0607
     31 C         144.1012  140.1446  161.5098 C.ar    1  UNL1        0.0148
     32 C         142.9844  139.4297  160.8086 C.ar    1  UNL1        0.0028
     33 C         142.0882  138.5034  161.5759 C.ar    1  UNL1        0.0207
     34 C         142.3088  138.2919  163.0444 C.ar    1  UNL1        0.0984
     35 N         143.4255  139.0069  163.7457 N.ar    1  UNL1       -0.2481
@<TRIPOS>BOND
     1    11    12    2
     2    12    13   am
     3    13    15    1
     4    15    16    1
     5    16    17   ar
     6    17    18   ar
     7    18    19   ar
     8    19    22    1
     9    22    23    1
    10    23    24    1
    11    24    25    1
    12    24    26    1
    13    24    27    1
    14    19    20   ar
    15    20    21   ar
    16    12     1    1
    17     1     2    1
    18     2     3   ar
    19     3     4   ar
    20     4     5   ar
    21     5     6   ar
    22     6     7   ar
    23     7     8    1
    24     8     9    2
    25     8    10   am
    26    10    28    1
    27    28    29    1
    28    29    30    1
    29    30    31   ar
    30    31    32   ar
    31    32    33   ar
    32    33    34   ar
    33    34    35   ar
    34    21    16   ar
    35    10     1    1
    36    35    30   ar
    37     7     2   ar
    38    13    14    1
@<TRIPOS>MOLECULE
*****
 35 38 0 0 0
SMALL
GASTEIGER

@<TRIPOS>ATOM
      1 C         139.4539  142.1856  161.8734 C.3     1  UNL1        0.1751
      2 C         140.0587  141.9762  160.5168 C.ar    1  UNL1        0.0089
      3 C         140.4701  140.7349  159.7821 C.ar    1  UNL1       -0.0021
      4 C         141.0598  140.8381  158.4068 C.ar    1  UNL1       -0.0003
      5 C         141.2380  142.1827  157.7661 C.ar    1  UNL1        0.0001
      6 C         140.8265  143.4240  158.5008 C.ar    1  UNL1        0.0043
      7 C         140.2369  143.3207  159.8762 C.ar    1  UNL1        0.0516
      8 C         139.7423  144.3611  160.8369 C.2     1  UNL1        0.2493
      9 O         139.7332  145.8429  160.6040 O.2     1  UNL1       -0.2699
     10 N         139.2583  143.6596  162.0713 N.am    1  UNL1       -0.2657
     11 O         137.6981  140.5995  162.9465 O.2     1  UNL1       -0.2729
     12 C         139.1058  141.1099  162.8592 C.2     1  UNL1        0.2451
     13 N         140.1656  140.5445  163.7577 N.am    1  UNL1       -0.2988
     14 H         141.0896  140.8794  163.7005 H       1  UNL1        0.1498
     15 C         139.8175  139.4687  164.7434 C.3     1  UNL1        0.1179
     16 C         140.1103  139.6644  166.2015 C.ar    1  UNL1        0.0168
     17 C         141.5237  139.8632  166.6627 C.ar    1  UNL1        0.0037
     18 C         141.8163  140.0588  168.1208 C.ar    1  UNL1        0.0574
     19 C         140.6956  140.0558  169.1178 C.ar    1  UNL1        0.2251
     20 N         139.2821  139.8570  168.6566 N.ar    1  UNL1       -0.2104
     21 C         138.9895  139.6613  167.1984 C.ar    1  UNL1        0.0994
     22 O         140.9883  140.2514  170.5758 O.3     1  UNL1       -0.4509
     23 C         140.9796  141.6313  171.1640 C.3     1  UNL1        0.3095
     24 C         140.6194  142.8092  170.3080 C.3     1  UNL1        0.4381
     25 F         140.2592  143.9871  169.4520 F       1  UNL1       -0.1663
     26 F         142.0723  143.0419  170.0168 F       1  UNL1       -0.1663
     27 F         139.1664  142.5765  170.5992 F       1  UNL1       -0.1663
     28 C         138.6804  144.3167  163.2895 C.3     1  UNL1        0.1007
     29 C         139.5407  144.5482  164.4963 C.3     1  UNL1        0.0673
     30 C         141.0203  144.3144  164.4185 C.ar    1  UNL1        0.0607
     31 C         141.9083  145.3370  163.7737 C.ar    1  UNL1        0.0148
     32 C         143.3879  145.1032  163.6960 C.ar    1  UNL1        0.0028
     33 C         143.9795  143.8468  164.2631 C.ar    1  UNL1        0.0207
     34 C         143.0915  142.8243  164.9078 C.ar    1  UNL1        0.0984
     35 N         141.6119  143.0580  164.9856 N.ar    1  UNL1       -0.2481
@<TRIPOS>BOND
     1    11    12    2
     2    12    13   am
     3    13    15    1
     4    15    16    1
     5    16    17   ar
     6    17    18   ar
     7    18    19   ar
     8    19    22    1
     9    22    23    1
    10    23    24    1
    11    24    25    1
    12    24    26    1
    13    24    27    1
    14    19    20   ar
    15    20    21   ar
    16    12     1    1
    17     1     2    1
    18     2     3   ar
    19     3     4   ar
    20     4     5   ar
    21     5     6   ar
    22     6     7   ar
    23     7     8    1
    24     8     9    2
    25     8    10   am
    26    10    28    1
    27    28    29    1
    28    29    30    1
    29    30    31   ar
    30    31    32   ar
    31    32    33   ar
    32    33    34   ar
    33    34    35   ar
    34    21    16   ar
    35    10     1    1
    36    35    30   ar
    37     7     2   ar
    38    13    14    1
@<TRIPOS>MOLECULE
*****
 35 38 0 0 0
SMALL
GASTEIGER

@<TRIPOS>ATOM
      1 C         139.1664  142.3861  163.1139 C.3     1  UNL1        0.1751
      2 C         138.8326  141.0409  162.5403 C.ar    1  UNL1        0.0089
      3 C         138.7354  139.6801  163.1636 C.ar    1  UNL1       -0.0021
      4 C         138.3736  138.4932  162.3208 C.ar    1  UNL1       -0.0003
      5 C         138.1090  138.6672  160.8546 C.ar    1  UNL1        0.0001
      6 C         138.2062  140.0281  160.2312 C.ar    1  UNL1        0.0043
      7 C         138.5680  141.2149  161.0741 C.ar    1  UNL1        0.0516
      8 C         138.7383  142.6677  160.7416 C.2     1  UNL1        0.2493
      9 O         138.5685  143.2877  159.3863 O.2     1  UNL1       -0.2699
     10 N         139.1081  143.3915  162.0022 N.am    1  UNL1       -0.2657
     11 O         138.6218  143.5862  165.3529 O.2     1  UNL1       -0.2729
     12 C         139.5000  142.6751  164.5475 C.2     1  UNL1        0.2451
     13 N         140.7118  142.0531  165.1757 N.am    1  UNL1       -0.2988
     14 H         141.2882  141.4551  164.6471 H       1  UNL1        0.1498
     15 C         141.0454  142.3421  166.6093 C.3     1  UNL1        0.1179
     16 C         140.3045  141.6393  167.7080 C.ar    1  UNL1        0.0168
     17 C         139.5671  140.3653  167.4199 C.ar    1  UNL1        0.0037
     18 C         138.8262  139.6626  168.5187 C.ar    1  UNL1        0.0574
     19 C         138.8227  140.2339  169.9056 C.ar    1  UNL1        0.2251
     20 N         139.5601  141.5080  170.1938 N.ar    1  UNL1       -0.2104
     21 C         140.3010  142.2107  169.0949 C.ar    1  UNL1        0.0994
     22 O         138.0818  139.5312  171.0043 O.3     1  UNL1       -0.4509
     23 C         136.7946  138.8212  170.7062 C.3     1  UNL1        0.3095
     24 C         135.8814  138.4217  171.8271 C.3     1  UNL1        0.4381
     25 F         134.9682  138.0222  172.9480 F       1  UNL1       -0.1663
     26 F         136.3945  137.0146  171.7436 F       1  UNL1       -0.1663
     27 F         135.3683  139.8287  171.9105 F       1  UNL1       -0.1663
     28 C         139.3731  144.8625  162.1290 C.3     1  UNL1        0.1007
     29 C         140.7006  145.4239  161.7137 C.3     1  UNL1        0.0673
     30 C         141.9684  144.8205  162.2414 C.ar    1  UNL1        0.0607
     31 C         142.3326  144.9858  163.6872 C.ar    1  UNL1        0.0148
     32 C         143.6004  144.3824  164.2149 C.ar    1  UNL1        0.0028
     33 C         144.5040  143.6136  163.2970 C.ar    1  UNL1        0.0207
     34 C         144.1398  143.4484  161.8513 C.ar    1  UNL1        0.0984
     35 N         142.8720  144.0518  161.3235 N.ar    1  UNL1       -0.2481
@<TRIPOS>BOND
     1    11    12    2
     2    12    13   am
     3    13    15    1
     4    15    16    1
     5    16    17   ar
     6    17    18   ar
     7    18    19   ar
     8    19    22    1
     9    22    23    1
    10    23    24    1
    11    24    25    1
    12    24    26    1
    13    24    27    1
    14    19    20   ar
    15    20    21   ar
    16    12     1    1
    17     1     2    1
    18     2     3   ar
    19     3     4   ar
    20     4     5   ar
    21     5     6   ar
    22     6     7   ar
    23     7     8    1
    24     8     9    2
    25     8    10   am
    26    10    28    1
    27    28    29    1
    28    29    30    1
    29    30    31   ar
    30    31    32   ar
    31    32    33   ar
    32    33    34   ar
    33    34    35   ar
    34    21    16   ar
    35    10     1    1
    36    35    30   ar
    37     7     2   ar
    38    13    14    1
@<TRIPOS>MOLECULE
*****
 35 38 0 0 0
SMALL
GASTEIGER

@<TRIPOS>ATOM
      1 C         142.6386  139.8487  164.8987 C.3     1  UNL1        0.1751
      2 C         143.4493  140.7801  164.0471 C.ar    1  UNL1        0.0089
      3 C         143.9931  142.1549  164.3006 C.ar    1  UNL1       -0.0021
      4 C         144.7857  142.8556  163.2372 C.ar    1  UNL1       -0.0003
      5 C         145.0345  142.1816  161.9205 C.ar    1  UNL1        0.0001
      6 C         144.4907  140.8068  161.6671 C.ar    1  UNL1        0.0043
      7 C         143.6981  140.1061  162.7304 C.ar    1  UNL1        0.0516
      8 C         143.0411  138.7581  162.7682 C.2     1  UNL1        0.2493
      9 O         143.0393  137.7468  161.6604 O.2     1  UNL1       -0.2699
     10 N         142.3863  138.5991  164.1083 N.am    1  UNL1       -0.2657
     11 O         142.6869  139.3003  167.4378 O.2     1  UNL1       -0.2729
     12 C         142.1635  140.1194  166.2955 C.2     1  UNL1        0.2451
     13 N         141.1649  141.2095  166.5501 N.am    1  UNL1       -0.2988
     14 H         140.8213  141.7472  165.8004 H       1  UNL1        0.1498
     15 C         140.6899  141.4803  167.9469 C.3     1  UNL1        0.1179
     16 C         139.6055  140.6355  168.5471 C.ar    1  UNL1        0.0168
     17 C         138.8382  139.6766  167.6858 C.ar    1  UNL1        0.0037
     18 C         137.7538  138.8319  168.2862 C.ar    1  UNL1        0.0574
     19 C         137.4366  138.9459  169.7479 C.ar    1  UNL1        0.2251
     20 N         138.2039  139.9048  170.6092 N.ar    1  UNL1       -0.2104
     21 C         139.2884  140.7496  170.0088 C.ar    1  UNL1        0.0994
     22 O         136.3522  138.1011  170.3481 O.3     1  UNL1       -0.4509
     23 C         135.8430  138.4024  171.7265 C.3     1  UNL1        0.3095
     24 C         135.7442  137.3063  172.7457 C.3     1  UNL1        0.4381
     25 F         135.6454  136.2102  173.7649 F       1  UNL1       -0.1663
     26 F         134.3522  137.7490  173.0868 F       1  UNL1       -0.1663
     27 F         137.1362  136.8636  172.4046 F       1  UNL1       -0.1663
     28 C         141.6147  137.4007  164.5759 C.3     1  UNL1        0.1007
     29 C         140.1227  137.4755  164.7113 C.3     1  UNL1        0.0673
     30 C         139.3240  138.3127  163.7569 C.ar    1  UNL1        0.0607
     31 C         138.8900  139.6931  164.1523 C.ar    1  UNL1        0.0148
     32 C         138.0912  140.5304  163.1979 C.ar    1  UNL1        0.0028
     33 C         137.7265  139.9873  161.8480 C.ar    1  UNL1        0.0207
     34 C         138.1605  138.6070  161.4526 C.ar    1  UNL1        0.0984
     35 N         138.9592  137.7697  162.4071 N.ar    1  UNL1       -0.2481
@<TRIPOS>BOND
     1    11    12    2
     2    12    13   am
     3    13    15    1
     4    15    16    1
     5    16    17   ar
     6    17    18   ar
     7    18    19   ar
     8    19    22    1
     9    22    23    1
    10    23    24    1
    11    24    25    1
    12    24    26    1
    13    24    27    1
    14    19    20   ar
    15    20    21   ar
    16    12     1    1
    17     1     2    1
    18     2     3   ar
    19     3     4   ar
    20     4     5   ar
    21     5     6   ar
    22     6     7   ar
    23     7     8    1
    24     8     9    2
    25     8    10   am
    26    10    28    1
    27    28    29    1
    28    29    30    1
    29    30    31   ar
    30    31    32   ar
    31    32    33   ar
    32    33    34   ar
    33    34    35   ar
    34    21    16   ar
    35    10     1    1
    36    35    30   ar
    37     7     2   ar
    38    13    14    1
@<TRIPOS>MOLECULE
*****
 35 38 0 0 0
SMALL
GASTEIGER

@<TRIPOS>ATOM
      1 C         140.4634  138.7387  161.3893 C.3     1  UNL1        0.1751
      2 C         141.1371  138.9355  160.0636 C.ar    1  UNL1        0.0089
      3 C         142.5524  138.7215  159.6154 C.ar    1  UNL1       -0.0021
      4 C         142.9414  139.0108  158.1959 C.ar    1  UNL1       -0.0003
      5 C         141.9150  139.5141  157.2247 C.ar    1  UNL1        0.0001
      6 C         140.4996  139.7281  157.6729 C.ar    1  UNL1        0.0043
      7 C         140.1107  139.4388  159.0924 C.ar    1  UNL1        0.0516
      8 C         138.8028  139.5530  159.8179 C.2     1  UNL1        0.2493
      9 O         137.5047  140.0182  159.2274 O.2     1  UNL1       -0.2699
     10 N         139.0208  139.1203  161.2375 N.am    1  UNL1       -0.2657
     11 O         141.0035  136.8025  163.0355 O.2     1  UNL1       -0.2729
     12 C         141.1177  138.2466  162.6463 C.2     1  UNL1        0.2451
     13 N         141.8862  139.1987  163.5141 N.am    1  UNL1       -0.2988
     14 H         141.9612  140.1466  163.2587 H       1  UNL1        0.1498
     15 C         142.5405  138.7066  164.7710 C.3     1  UNL1        0.1179
     16 C         142.0246  139.1498  166.1079 C.ar    1  UNL1        0.0168
     17 C         140.6071  139.6201  166.2466 C.ar    1  UNL1        0.0037
     18 C         140.0913  140.0633  167.5836 C.ar    1  UNL1        0.0574
     19 C         140.9931  140.0362  168.7820 C.ar    1  UNL1        0.2251
     20 N         142.4107  139.5659  168.6433 N.ar    1  UNL1       -0.2104
     21 C         142.9265  139.1227  167.3062 C.ar    1  UNL1        0.0994
     22 O         140.4773  140.4793  170.1189 O.3     1  UNL1       -0.4509
     23 C         140.9879  141.7470  170.7373 C.3     1  UNL1        0.3095
     24 C         140.6000  143.0742  170.1560 C.3     1  UNL1        0.4381
     25 F         140.2121  144.4015  169.5746 F       1  UNL1       -0.1663
     26 F         139.2111  142.9052  170.6968 F       1  UNL1       -0.1663
     27 F         141.9888  143.2433  169.6152 F       1  UNL1       -0.1663
     28 C         137.9790  139.0768  162.3159 C.3     1  UNL1        0.1007
     29 C         138.1345  139.9245  163.5435 C.3     1  UNL1        0.0673
     30 C         138.5056  141.3720  163.4133 C.ar    1  UNL1        0.0607
     31 C         137.4327  142.4138  163.2968 C.ar    1  UNL1        0.0148
     32 C         137.8038  143.8614  163.1667 C.ar    1  UNL1        0.0028
     33 C         139.2478  144.2671  163.1530 C.ar    1  UNL1        0.0207
     34 C         140.3207  143.2253  163.2694 C.ar    1  UNL1        0.0984
     35 N         139.9496  141.7778  163.3996 N.ar    1  UNL1       -0.2481
@<TRIPOS>BOND
     1    11    12    2
     2    12    13   am
     3    13    15    1
     4    15    16    1
     5    16    17   ar
     6    17    18   ar
     7    18    19   ar
     8    19    22    1
     9    22    23    1
    10    23    24    1
    11    24    25    1
    12    24    26    1
    13    24    27    1
    14    19    20   ar
    15    20    21   ar
    16    12     1    1
    17     1     2    1
    18     2     3   ar
    19     3     4   ar
    20     4     5   ar
    21     5     6   ar
    22     6     7   ar
    23     7     8    1
    24     8     9    2
    25     8    10   am
    26    10    28    1
    27    28    29    1
    28    29    30    1
    29    30    31   ar
    30    31    32   ar
    31    32    33   ar
    32    33    34   ar
    33    34    35   ar
    34    21    16   ar
    35    10     1    1
    36    35    30   ar
    37     7     2   ar
    38    13    14    1
@<TRIPOS>MOLECULE
*****
 35 38 0 0 0
SMALL
GASTEIGER

@<TRIPOS>ATOM
      1 C         139.0039  140.3147  164.9635 C.3     1  UNL1        0.1751
      2 C         138.6318  141.6604  164.4152 C.ar    1  UNL1        0.0089
      3 C         138.5776  143.0207  165.0448 C.ar    1  UNL1       -0.0021
      4 C         138.1590  144.2083  164.2297 C.ar    1  UNL1       -0.0003
      5 C         137.7947  144.0355  162.7849 C.ar    1  UNL1        0.0001
      6 C         137.8489  142.6751  162.1553 C.ar    1  UNL1        0.0043
      7 C         138.2674  141.4876  162.9704 C.ar    1  UNL1        0.0516
      8 C         138.4144  140.0351  162.6258 C.2     1  UNL1        0.2493
      9 O         138.1523  139.4162  161.2848 O.2     1  UNL1       -0.2699
     10 N         138.8696  139.3102  163.8576 N.am    1  UNL1       -0.2657
     11 O         138.5981  139.1365  167.2432 O.2     1  UNL1       -0.2729
     12 C         139.4347  140.0245  166.3707 C.2     1  UNL1        0.2451
     13 N         140.7024  140.6223  166.9054 N.am    1  UNL1       -0.2988
     14 H         141.2515  141.2052  166.3328 H       1  UNL1        0.1498
     15 C         141.1332  140.3321  168.3126 C.3     1  UNL1        0.1179
     16 C         141.8876  141.3664  169.0943 C.ar    1  UNL1        0.0168
     17 C         141.2174  142.0878  170.2258 C.ar    1  UNL1        0.0037
     18 C         141.9720  143.1220  171.0075 C.ar    1  UNL1        0.0574
     19 C         143.3967  143.4350  170.6577 C.ar    1  UNL1        0.2251
     20 N         144.0669  142.7135  169.5261 N.ar    1  UNL1       -0.2104
     21 C         143.3123  141.6792  168.7444 C.ar    1  UNL1        0.0994
     22 O         144.1511  144.4692  171.4394 O.3     1  UNL1       -0.4509
     23 C         145.6148  144.6794  171.1879 C.3     1  UNL1        0.3095
     24 C         146.3428  145.7922  171.8818 C.3     1  UNL1        0.4381
     25 F         147.0708  146.9051  172.5758 F       1  UNL1       -0.1663
     26 F         145.3460  146.7775  171.3476 F       1  UNL1       -0.1663
     27 F         147.3397  144.8069  172.4161 F       1  UNL1       -0.1663
     28 C         139.1425  137.8391  163.9647 C.3     1  UNL1        0.1007
     29 C         140.4433  137.2797  163.4698 C.3     1  UNL1        0.0673
     30 C         141.7322  137.9708  163.8030 C.ar    1  UNL1        0.0607
     31 C         142.2423  137.9672  165.2137 C.ar    1  UNL1        0.0148
     32 C         143.5312  138.6583  165.5469 C.ar    1  UNL1        0.0028
     33 C         144.3101  139.3530  164.4695 C.ar    1  UNL1        0.0207
     34 C         143.8000  139.3566  163.0589 C.ar    1  UNL1        0.0984
     35 N         142.5111  138.6655  162.7257 N.ar    1  UNL1       -0.2481
@<TRIPOS>BOND
     1    11    12    2
     2    12    13   am
     3    13    15    1
     4    15    16    1
     5    16    17   ar
     6    17    18   ar
     7    18    19   ar
     8    19    22    1
     9    22    23    1
    10    23    24    1
    11    24    25    1
    12    24    26    1
    13    24    27    1
    14    19    20   ar
    15    20    21   ar
    16    12     1    1
    17     1     2    1
    18     2     3   ar
    19     3     4   ar
    20     4     5   ar
    21     5     6   ar
    22     6     7   ar
    23     7     8    1
    24     8     9    2
    25     8    10   am
    26    10    28    1
    27    28    29    1
    28    29    30    1
    29    30    31   ar
    30    31    32   ar
    31    32    33   ar
    32    33    34   ar
    33    34    35   ar
    34    21    16   ar
    35    10     1    1
    36    35    30   ar
    37     7     2   ar
    38    13    14    1
@<TRIPOS>MOLECULE
*****
 35 38 0 0 0
SMALL
GASTEIGER

@<TRIPOS>ATOM
      1 C         140.7334  140.3196  166.9884 C.3     1  UNL1        0.1751
      2 C         141.0009  140.6478  168.4274 C.ar    1  UNL1        0.0089
      3 C         140.3161  141.5720  169.3901 C.ar    1  UNL1       -0.0021
      4 C         140.8195  141.6958  170.7977 C.ar    1  UNL1       -0.0003
      5 C         142.0076  140.8955  171.2425 C.ar    1  UNL1        0.0001
      6 C         142.6924  139.9713  170.2798 C.ar    1  UNL1        0.0043
      7 C         142.1890  139.8474  168.8722 C.ar    1  UNL1        0.0516
      8 C         142.6558  139.0247  167.7081 C.2     1  UNL1        0.2493
      9 O         143.8181  138.0765  167.7082 O.2     1  UNL1       -0.2699
     10 N         141.7562  139.3164  166.5438 N.am    1  UNL1       -0.2657
     11 O         138.4606  140.0437  165.7604 O.2     1  UNL1       -0.2729
     12 C         139.6358  140.8938  166.1425 C.2     1  UNL1        0.2451
     13 N         139.7134  142.3182  165.6786 N.am    1  UNL1       -0.2988
     14 H         140.4848  142.8762  165.9294 H       1  UNL1        0.1498
     15 C         138.6158  142.8924  164.8327 C.3     1  UNL1        0.1179
     16 C         138.9486  143.6104  163.5585 C.ar    1  UNL1        0.0168
     17 C         139.7015  144.9070  163.6028 C.ar    1  UNL1        0.0037
     18 C         140.0343  145.6249  162.3285 C.ar    1  UNL1        0.0574
     19 C         139.6141  145.0464  161.0099 C.ar    1  UNL1        0.2251
     20 N         138.8612  143.7498  160.9656 N.ar    1  UNL1       -0.2104
     21 C         138.5285  143.0318  162.2399 C.ar    1  UNL1        0.0994
     22 O         139.9469  145.7644  159.7357 O.3     1  UNL1       -0.4509
     23 C         140.4764  144.9987  158.5595 C.3     1  UNL1        0.3095
     24 C         141.5135  145.6154  157.6684 C.3     1  UNL1        0.4381
     25 F         142.5507  146.2321  156.7774 F       1  UNL1       -0.1663
     26 F         142.5457  144.6776  158.2209 F       1  UNL1       -0.1663
     27 F         140.4813  146.5531  157.1160 F       1  UNL1       -0.1663
     28 C         141.8609  138.7113  165.1753 C.3     1  UNL1        0.1007
     29 C         143.0827  138.9537  164.3396 C.3     1  UNL1        0.0673
     30 C         143.5180  140.3568  164.0366 C.ar    1  UNL1        0.0607
     31 C         144.9714  140.6621  163.8255 C.ar    1  UNL1        0.0148
     32 C         145.4066  142.0652  163.5225 C.ar    1  UNL1        0.0028
     33 C         144.3885  143.1630  163.4307 C.ar    1  UNL1        0.0207
     34 C         142.9352  142.8577  163.6419 C.ar    1  UNL1        0.0984
     35 N         142.5000  141.4545  163.9448 N.ar    1  UNL1       -0.2481
@<TRIPOS>BOND
     1    11    12    2
     2    12    13   am
     3    13    15    1
     4    15    16    1
     5    16    17   ar
     6    17    18   ar
     7    18    19   ar
     8    19    22    1
     9    22    23    1
    10    23    24    1
    11    24    25    1
    12    24    26    1
    13    24    27    1
    14    19    20   ar
    15    20    21   ar
    16    12     1    1
    17     1     2    1
    18     2     3   ar
    19     3     4   ar
    20     4     5   ar
    21     5     6   ar
    22     6     7   ar
    23     7     8    1
    24     8     9    2
    25     8    10   am
    26    10    28    1
    27    28    29    1
    28    29    30    1
    29    30    31   ar
    30    31    32   ar
    31    32    33   ar
    32    33    34   ar
    33    34    35   ar
    34    21    16   ar
    35    10     1    1
    36    35    30   ar
    37     7     2   ar
    38    13    14    1
@<TRIPOS>MOLECULE
*****
 35 38 0 0 0
SMALL
GASTEIGER

@<TRIPOS>ATOM
      1 C         140.5380  142.9500  163.4195 C.3     1  UNL1        0.1751
      2 C         141.9169  142.9808  162.8298 C.ar    1  UNL1        0.0089
      3 C         143.2782  142.9748  163.4597 C.ar    1  UNL1       -0.0021
      4 C         144.5042  143.0124  162.5963 C.ar    1  UNL1       -0.0003
      5 C         144.3689  143.0559  161.1031 C.ar    1  UNL1        0.0001
      6 C         143.0076  143.0619  160.4732 C.ar    1  UNL1        0.0043
      7 C         141.7816  143.0243  161.3366 C.ar    1  UNL1        0.0516
      8 C         140.3191  143.0205  161.0034 C.2     1  UNL1        0.2493
      9 O         139.7288  143.0562  159.6249 O.2     1  UNL1       -0.2699
     10 N         139.5505  142.9745  162.2907 N.am    1  UNL1       -0.2657
     11 O         139.4861  144.0516  165.5242 O.2     1  UNL1       -0.2729
     12 C         140.2051  142.9029  164.8813 C.2     1  UNL1        0.2451
     13 N         140.5913  141.7070  165.7004 N.am    1  UNL1       -0.2988
     14 H         141.0633  140.9530  165.2785 H       1  UNL1        0.1498
     15 C         140.2584  141.6599  167.1622 C.3     1  UNL1        0.1179
     16 C         141.0355  140.7632  168.0798 C.ar    1  UNL1        0.0168
     17 C         140.6758  140.6848  169.5339 C.ar    1  UNL1        0.0037
     18 C         141.4529  139.7880  170.4514 C.ar    1  UNL1        0.0574
     19 C         142.5897  138.9695  169.9149 C.ar    1  UNL1        0.2251
     20 N         142.9494  139.0479  168.4608 N.ar    1  UNL1       -0.2104
     21 C         142.1722  139.9447  167.5432 C.ar    1  UNL1        0.0994
     22 O         143.3667  138.0727  170.8324 O.3     1  UNL1       -0.4509
     23 C         144.0116  136.8289  170.2968 C.3     1  UNL1        0.3095
     24 C         144.6323  135.8405  171.2390 C.3     1  UNL1        0.4381
     25 F         145.2530  134.8521  172.1813 F       1  UNL1       -0.1663
     26 F         145.9539  136.0148  170.5513 F       1  UNL1       -0.1663
     27 F         143.3107  135.6662  171.9268 F       1  UNL1       -0.1663
     28 C         138.0567  142.9563  162.4255 C.3     1  UNL1        0.1007
     29 C         137.3942  141.9254  163.2906 C.3     1  UNL1        0.0673
     30 C         137.8449  140.4959  163.2327 C.ar    1  UNL1        0.0607
     31 C         137.8136  139.7518  161.9306 C.ar    1  UNL1        0.0148
     32 C         138.2643  138.3223  161.8727 C.ar    1  UNL1        0.0028
     33 C         138.7463  137.6368  163.1169 C.ar    1  UNL1        0.0207
     34 C         138.7776  138.3809  164.4189 C.ar    1  UNL1        0.0984
     35 N         138.3269  139.8104  164.4768 N.ar    1  UNL1       -0.2481
@<TRIPOS>BOND
     1    11    12    2
     2    12    13   am
     3    13    15    1
     4    15    16    1
     5    16    17   ar
     6    17    18   ar
     7    18    19   ar
     8    19    22    1
     9    22    23    1
    10    23    24    1
    11    24    25    1
    12    24    26    1
    13    24    27    1
    14    19    20   ar
    15    20    21   ar
    16    12     1    1
    17     1     2    1
    18     2     3   ar
    19     3     4   ar
    20     4     5   ar
    21     5     6   ar
    22     6     7   ar
    23     7     8    1
    24     8     9    2
    25     8    10   am
    26    10    28    1
    27    28    29    1
    28    29    30    1
    29    30    31   ar
    30    31    32   ar
    31    32    33   ar
    32    33    34   ar
    33    34    35   ar
    34    21    16   ar
    35    10     1    1
    36    35    30   ar
    37     7     2   ar
    38    13    14    1
