@<TRIPOS>MOLECULE
*****
 24 26 0 0 0
SMALL
GASTEIGER

@<TRIPOS>ATOM
      1 C         140.6548  139.6659  166.8166 C.ar    1  UNL1       -0.0078
      2 C         139.1592  139.5735  166.7485 C.ar    1  UNL1        0.0002
      3 C         138.5018  138.9020  165.5794 C.ar    1  UNL1        0.0372
      4 C         139.3399  138.3230  164.4783 C.ar    1  UNL1        0.1453
      5 C         140.8355  138.4155  164.5464 C.ar    1  UNL1        0.0372
      6 C         141.4929  139.0869  165.7155 C.ar    1  UNL1        0.0002
      7 C         141.9961  142.0184  169.5973 C.3     1  UNL1        0.1315
      8 C         142.6523  140.7227  169.9724 C.3     1  UNL1        0.0268
      9 C         142.2297  139.6838  168.9763 C.3     1  UNL1        0.0221
     10 C         141.3123  140.3374  167.9857 C.3     1  UNL1        0.0772
     11 N         141.1680  141.7802  168.3695 N.3     1  UNL1       -0.2890
     12 H         140.1893  141.9899  168.5660 H       1  UNL1        0.1239
     13 N         143.4228  143.6465  171.0338 N.am    1  UNL1       -0.3277
     14 C         142.1423  143.3232  170.3227 C.2     1  UNL1        0.2336
     15 O         141.0081  144.3046  170.3370 O.2     1  UNL1       -0.2739
     16 H         143.5188  144.5029  171.5099 H       1  UNL1        0.1450
     17 H         144.1673  143.0024  171.0244 H       1  UNL1        0.1450
     18 O         138.6824  137.6516  163.3092 O.3     1  UNL1       -0.4535
     19 C         138.6903  138.3127  161.9628 C.ar    1  UNL1        0.1453
     20 C         137.5759  139.2391  161.5755 C.ar    1  UNL1        0.0375
     21 C         137.5838  139.9002  160.2290 C.ar    1  UNL1        0.0031
     22 C         138.7062  139.6349  159.2699 C.ar    1  UNL1        0.0002
     23 C         139.8205  138.7085  159.6571 C.ar    1  UNL1        0.0031
     24 C         139.8126  138.0474  161.0035 C.ar    1  UNL1        0.0375
@<TRIPOS>BOND
     1    13    14   am
     2    14    15    2
     3     7    14    1
     4     7     8    1
     5     8     9    1
     6     9    10    1
     7    10     1    1
     8     1     2   ar
     9     2     3   ar
    10     3     4   ar
    11     4    18    1
    12    18    19    1
    13    19    20   ar
    14    20    21   ar
    15    21    22   ar
    16    22    23   ar
    17    23    24   ar
    18     4     5   ar
    19     5     6   ar
    20    10    11    1
    21    11     7    1
    22     6     1   ar
    23    24    19   ar
    24    13    16    1
    25    13    17    1
    26    11    12    1
@<TRIPOS>MOLECULE
*****
 24 26 0 0 0
SMALL
GASTEIGER

@<TRIPOS>ATOM
      1 C         139.7218  141.0667  166.8352 C.ar    1  UNL1       -0.0078
      2 C         140.0729  142.4538  166.3850 C.ar    1  UNL1        0.0002
      3 C         139.5091  142.9915  165.1033 C.ar    1  UNL1        0.0372
      4 C         138.5941  142.1422  164.2718 C.ar    1  UNL1        0.1453
      5 C         138.2429  140.7552  164.7220 C.ar    1  UNL1        0.0372
      6 C         138.8067  140.2174  166.0037 C.ar    1  UNL1        0.0002
      7 C         141.7937  139.5332  169.7372 C.3     1  UNL1        0.1315
      8 C         140.5128  139.8694  170.4417 C.3     1  UNL1        0.0268
      9 C         139.5808  140.4848  169.4404 C.3     1  UNL1        0.0221
     10 C         140.2856  140.5289  168.1170 C.3     1  UNL1        0.0772
     11 N         141.6533  139.9408  168.3004 N.3     1  UNL1       -0.2890
     12 H         142.3629  140.6352  168.0667 H       1  UNL1        0.1239
     13 N         143.8041  139.6562  171.3782 N.am    1  UNL1       -0.3277
     14 C         143.0027  138.9005  170.3600 C.2     1  UNL1        0.2336
     15 O         143.4103  137.5121  169.9648 O.2     1  UNL1       -0.2739
     16 H         144.5977  139.2409  171.7870 H       1  UNL1        0.1450
     17 H         143.5366  140.5674  171.6376 H       1  UNL1        0.1450
     18 O         138.0302  142.6800  162.9900 O.3     1  UNL1       -0.4535
     19 C         138.8315  143.6413  162.1631 C.ar    1  UNL1        0.1453
     20 C         138.9304  145.0810  162.5721 C.ar    1  UNL1        0.0375
     21 C         139.7318  146.0423  161.7451 C.ar    1  UNL1        0.0031
     22 C         140.4343  145.5637  160.5092 C.ar    1  UNL1        0.0002
     23 C         140.3355  144.1240  160.1002 C.ar    1  UNL1        0.0031
     24 C         139.5341  143.1627  160.9271 C.ar    1  UNL1        0.0375
@<TRIPOS>BOND
     1    13    14   am
     2    14    15    2
     3     7    14    1
     4     7     8    1
     5     8     9    1
     6     9    10    1
     7    10     1    1
     8     1     2   ar
     9     2     3   ar
    10     3     4   ar
    11     4    18    1
    12    18    19    1
    13    19    20   ar
    14    20    21   ar
    15    21    22   ar
    16    22    23   ar
    17    23    24   ar
    18     4     5   ar
    19     5     6   ar
    20    10    11    1
    21    11     7    1
    22     6     1   ar
    23    24    19   ar
    24    13    16    1
    25    13    17    1
    26    11    12    1
@<TRIPOS>MOLECULE
*****
 24 26 0 0 0
SMALL
GASTEIGER

@<TRIPOS>ATOM
      1 C         139.5285  140.5241  166.1674 C.ar    1  UNL1       -0.0078
      2 C         138.6598  141.2752  165.2024 C.ar    1  UNL1        0.0002
      3 C         138.1351  140.5899  163.9756 C.ar    1  UNL1        0.0372
      4 C         138.4791  139.1535  163.7138 C.ar    1  UNL1        0.1453
      5 C         139.3477  138.4024  164.6788 C.ar    1  UNL1        0.0372
      6 C         139.8724  139.0877  165.9056 C.ar    1  UNL1        0.0002
      7 C         140.8337  141.6145  169.6564 C.3     1  UNL1        0.1315
      8 C         140.8880  142.9133  168.9077 C.3     1  UNL1        0.0268
      9 C         140.4057  142.6628  167.5096 C.3     1  UNL1        0.0221
     10 C         140.0533  141.2093  167.3942 C.3     1  UNL1        0.0772
     11 N         140.3178  140.5615  168.7210 N.3     1  UNL1       -0.2890
     12 H         141.0135  139.8234  168.6132 H       1  UNL1        0.1239
     13 N         142.3308  140.4504  171.4322 N.am    1  UNL1       -0.3277
     14 C         141.2263  141.4056  171.0889 C.2     1  UNL1        0.2336
     15 O         140.5145  142.1518  172.1782 O.2     1  UNL1       -0.2739
     16 H         142.5885  140.3133  172.3724 H       1  UNL1        0.1450
     17 H         142.7980  139.9607  170.7173 H       1  UNL1        0.1450
     18 O         137.9543  138.4682  162.4870 O.3     1  UNL1       -0.4535
     19 C         138.4155  138.9056  161.1284 C.ar    1  UNL1        0.1453
     20 C         139.6966  138.3686  160.5623 C.ar    1  UNL1        0.0375
     21 C         140.1578  138.8060  159.2036 C.ar    1  UNL1        0.0031
     22 C         139.3380  139.7805  158.4110 C.ar    1  UNL1        0.0002
     23 C         138.0569  140.3175  158.9771 C.ar    1  UNL1        0.0031
     24 C         137.5957  139.8802  160.3357 C.ar    1  UNL1        0.0375
@<TRIPOS>BOND
     1    13    14   am
     2    14    15    2
     3     7    14    1
     4     7     8    1
     5     8     9    1
     6     9    10    1
     7    10     1    1
     8     1     2   ar
     9     2     3   ar
    10     3     4   ar
    11     4    18    1
    12    18    19    1
    13    19    20   ar
    14    20    21   ar
    15    21    22   ar
    16    22    23   ar
    17    23    24   ar
    18     4     5   ar
    19     5     6   ar
    20    10    11    1
    21    11     7    1
    22     6     1   ar
    23    24    19   ar
    24    13    16    1
    25    13    17    1
    26    11    12    1
@<TRIPOS>MOLECULE
*****
 24 26 0 0 0
SMALL
GASTEIGER

@<TRIPOS>ATOM
      1 C         140.5007  142.9648  166.0983 C.ar    1  UNL1       -0.0078
      2 C         139.3413  143.8656  165.7912 C.ar    1  UNL1        0.0002
      3 C         139.3461  144.6944  164.5410 C.ar    1  UNL1        0.0372
      4 C         140.5103  144.6224  163.5979 C.ar    1  UNL1        0.1453
      5 C         141.6697  143.7216  163.9050 C.ar    1  UNL1        0.0372
      6 C         141.6649  142.8928  165.1551 C.ar    1  UNL1        0.0002
      7 C         140.8372  141.4134  169.6402 C.3     1  UNL1        0.1315
      8 C         140.1401  140.3075  168.9045 C.3     1  UNL1        0.0268
      9 C         139.9293  140.7542  167.4881 C.3     1  UNL1        0.0221
     10 C         140.4960  142.1360  167.3485 C.3     1  UNL1        0.0772
     11 N         141.0571  142.5434  168.6786 N.3     1  UNL1       -0.2890
     12 H         140.5805  143.3807  169.0135 H       1  UNL1        0.1239
     13 N         142.4392  140.5972  171.5157 N.am    1  UNL1       -0.3277
     14 C         141.2430  141.3928  171.0842 C.2     1  UNL1        0.2336
     15 O         140.4527  142.1678  172.0965 O.2     1  UNL1       -0.2739
     16 H         142.7055  140.5837  172.4634 H       1  UNL1        0.1450
     17 H         142.9579  140.0886  170.8513 H       1  UNL1        0.1450
     18 O         140.5151  145.4513  162.3476 O.3     1  UNL1       -0.4535
     19 C         140.1859  144.8195  161.0277 C.ar    1  UNL1        0.1453
     20 C         140.6027  145.4882  159.7513 C.ar    1  UNL1        0.0375
     21 C         140.2735  144.8563  158.4313 C.ar    1  UNL1        0.0031
     22 C         139.5276  143.5557  158.3877 C.ar    1  UNL1        0.0002
     23 C         139.1108  142.8869  159.6640 C.ar    1  UNL1        0.0031
     24 C         139.4400  143.5188  160.9840 C.ar    1  UNL1        0.0375
@<TRIPOS>BOND
     1    13    14   am
     2    14    15    2
     3     7    14    1
     4     7     8    1
     5     8     9    1
     6     9    10    1
     7    10     1    1
     8     1     2   ar
     9     2     3   ar
    10     3     4   ar
    11     4    18    1
    12    18    19    1
    13    19    20   ar
    14    20    21   ar
    15    21    22   ar
    16    22    23   ar
    17    23    24   ar
    18     4     5   ar
    19     5     6   ar
    20    10    11    1
    21    11     7    1
    22     6     1   ar
    23    24    19   ar
    24    13    16    1
    25    13    17    1
    26    11    12    1
@<TRIPOS>MOLECULE
*****
 24 26 0 0 0
SMALL
GASTEIGER

@<TRIPOS>ATOM
      1 C         140.0888  139.7537  166.6260 C.ar    1  UNL1       -0.0078
      2 C         141.4022  139.3127  166.0513 C.ar    1  UNL1        0.0002
      3 C         141.4330  138.4735  164.8084 C.ar    1  UNL1        0.0372
      4 C         140.1504  138.0753  164.1403 C.ar    1  UNL1        0.1453
      5 C         138.8370  138.5164  164.7151 C.ar    1  UNL1        0.0372
      6 C         138.8062  139.3556  165.9579 C.ar    1  UNL1        0.0002
      7 C         140.4681  142.3820  169.4569 C.3     1  UNL1        0.1315
      8 C         139.5528  141.3867  170.1063 C.3     1  UNL1        0.0268
      9 C         139.2994  140.2810  169.1249 C.3     1  UNL1        0.0221
     10 C         140.0580  140.5930  167.8690 C.3     1  UNL1        0.0772
     11 N         140.7803  141.8915  168.0742 N.3     1  UNL1       -0.2890
     12 H         140.4662  142.5749  167.3853 H       1  UNL1        0.1239
     13 N         142.4080  143.7326  170.5353 N.am    1  UNL1       -0.3277
     14 C         140.9812  143.6460  170.0808 C.2     1  UNL1        0.2336
     15 O         140.0673  144.8234  170.2501 O.2     1  UNL1       -0.2739
     16 H         142.7447  144.5622  170.9447 H       1  UNL1        0.1450
     17 H         143.0078  142.9599  170.4241 H       1  UNL1        0.1450
     18 O         140.1812  137.2361  162.8974 O.3     1  UNL1       -0.4535
     19 C         140.3552  137.8868  161.5572 C.ar    1  UNL1        0.1453
     20 C         139.1540  138.3443  160.7840 C.ar    1  UNL1        0.0375
     21 C         139.3280  138.9950  159.4437 C.ar    1  UNL1        0.0031
     22 C         140.7032  139.1883  158.8767 C.ar    1  UNL1        0.0002
     23 C         141.9043  138.7308  159.6499 C.ar    1  UNL1        0.0031
     24 C         141.7304  138.0801  160.9901 C.ar    1  UNL1        0.0375
@<TRIPOS>BOND
     1    13    14   am
     2    14    15    2
     3     7    14    1
     4     7     8    1
     5     8     9    1
     6     9    10    1
     7    10     1    1
     8     1     2   ar
     9     2     3   ar
    10     3     4   ar
    11     4    18    1
    12    18    19    1
    13    19    20   ar
    14    20    21   ar
    15    21    22   ar
    16    22    23   ar
    17    23    24   ar
    18     4     5   ar
    19     5     6   ar
    20    10    11    1
    21    11     7    1
    22     6     1   ar
    23    24    19   ar
    24    13    16    1
    25    13    17    1
    26    11    12    1
@<TRIPOS>MOLECULE
*****
 24 26 0 0 0
SMALL
GASTEIGER

@<TRIPOS>ATOM
      1 C         142.1767  140.5531  166.6679 C.ar    1  UNL1       -0.0078
      2 C         142.8531  141.5849  165.8148 C.ar    1  UNL1        0.0002
      3 C         143.7081  141.1586  164.6584 C.ar    1  UNL1        0.0372
      4 C         143.8865  139.7005  164.3551 C.ar    1  UNL1        0.1453
      5 C         143.2101  138.6687  165.2081 C.ar    1  UNL1        0.0372
      6 C         142.3551  139.0950  166.3645 C.ar    1  UNL1        0.0002
      7 C         140.3084  142.3211  169.5747 C.3     1  UNL1        0.1315
      8 C         139.7036  140.9496  169.6332 C.3     1  UNL1        0.0268
      9 C         140.3299  140.1204  168.5514 C.3     1  UNL1        0.0221
     10 C         141.3217  140.9794  167.8244 C.3     1  UNL1        0.0772
     11 N         141.3084  142.3395  168.4568 N.3     1  UNL1       -0.2890
     12 H         141.0417  143.0402  167.7653 H       1  UNL1        0.1239
     13 N         138.8766  143.3345  171.4912 N.am    1  UNL1       -0.3277
     14 C         139.9722  143.4721  170.4760 C.2     1  UNL1        0.2336
     15 O         140.7316  144.7606  170.3620 O.2     1  UNL1       -0.2739
     16 H         138.6559  144.0899  172.0827 H       1  UNL1        0.1450
     17 H         138.3782  142.4888  171.5660 H       1  UNL1        0.1450
     18 O         144.7415  139.2742  163.1986 O.3     1  UNL1       -0.4535
     19 C         144.1338  139.1097  161.8372 C.ar    1  UNL1        0.1453
     20 C         143.5563  137.7870  161.4284 C.ar    1  UNL1        0.0375
     21 C         142.9486  137.6225  160.0669 C.ar    1  UNL1        0.0031
     22 C         142.9184  138.7807  159.1142 C.ar    1  UNL1        0.0002
     23 C         143.4958  140.1034  159.5229 C.ar    1  UNL1        0.0031
     24 C         144.1035  140.2679  160.8844 C.ar    1  UNL1        0.0375
@<TRIPOS>BOND
     1    13    14   am
     2    14    15    2
     3     7    14    1
     4     7     8    1
     5     8     9    1
     6     9    10    1
     7    10     1    1
     8     1     2   ar
     9     2     3   ar
    10     3     4   ar
    11     4    18    1
    12    18    19    1
    13    19    20   ar
    14    20    21   ar
    15    21    22   ar
    16    22    23   ar
    17    23    24   ar
    18     4     5   ar
    19     5     6   ar
    20    10    11    1
    21    11     7    1
    22     6     1   ar
    23    24    19   ar
    24    13    16    1
    25    13    17    1
    26    11    12    1
@<TRIPOS>MOLECULE
*****
 24 26 0 0 0
SMALL
GASTEIGER

@<TRIPOS>ATOM
      1 C         139.7962  142.4856  166.4474 C.ar    1  UNL1       -0.0078
      2 C         139.3598  141.1209  166.0034 C.ar    1  UNL1        0.0002
      3 C         138.5245  140.9659  164.7672 C.ar    1  UNL1        0.0372
      4 C         138.1257  142.1756  163.9750 C.ar    1  UNL1        0.1453
      5 C         138.5621  143.5402  164.4189 C.ar    1  UNL1        0.0372
      6 C         139.3974  143.6952  165.6551 C.ar    1  UNL1        0.0002
      7 C         142.4428  142.4365  169.2862 C.3     1  UNL1        0.1315
      8 C         141.3910  143.3221  169.8858 C.3     1  UNL1        0.0268
      9 C         140.2716  143.4483  168.8953 C.3     1  UNL1        0.0221
     10 C         140.6316  142.6407  167.6836 C.3     1  UNL1        0.0772
     11 N         141.9734  142.0154  167.9252 N.3     1  UNL1       -0.2890
     12 H         142.6356  142.3326  167.2172 H       1  UNL1        0.1239
     13 N         143.8603  140.7088  170.6111 N.am    1  UNL1       -0.3277
     14 C         143.7368  142.0414  169.9339 C.2     1  UNL1        0.2336
     15 O         144.9073  142.9791  169.9044 O.2     1  UNL1       -0.2739
     16 H         144.7096  140.4495  171.0362 H       1  UNL1        0.1450
     17 H         143.0921  140.0934  170.6305 H       1  UNL1        0.1450
     18 O         137.2904  142.0205  162.7387 O.3     1  UNL1       -0.4535
     19 C         137.9323  141.6113  161.4463 C.ar    1  UNL1        0.1453
     20 C         138.7634  142.5951  160.6772 C.ar    1  UNL1        0.0375
     21 C         139.4053  142.1858  159.3847 C.ar    1  UNL1        0.0031
     22 C         139.2161  140.7929  158.8613 C.ar    1  UNL1        0.0002
     23 C         138.3850  139.8092  159.6304 C.ar    1  UNL1        0.0031
     24 C         137.7431  140.2183  160.9228 C.ar    1  UNL1        0.0375
@<TRIPOS>BOND
     1    13    14   am
     2    14    15    2
     3     7    14    1
     4     7     8    1
     5     8     9    1
     6     9    10    1
     7    10     1    1
     8     1     2   ar
     9     2     3   ar
    10     3     4   ar
    11     4    18    1
    12    18    19    1
    13    19    20   ar
    14    20    21   ar
    15    21    22   ar
    16    22    23   ar
    17    23    24   ar
    18     4     5   ar
    19     5     6   ar
    20    10    11    1
    21    11     7    1
    22     6     1   ar
    23    24    19   ar
    24    13    16    1
    25    13    17    1
    26    11    12    1
@<TRIPOS>MOLECULE
*****
 24 26 0 0 0
SMALL
GASTEIGER

@<TRIPOS>ATOM
      1 C         142.3300  142.2134  166.2926 C.ar    1  UNL1       -0.0078
      2 C         141.1876  142.4663  165.3539 C.ar    1  UNL1        0.0002
      3 C         141.4043  143.2759  164.1100 C.ar    1  UNL1        0.0372
      4 C         142.7632  143.8328  163.8047 C.ar    1  UNL1        0.1453
      5 C         143.9055  143.5799  164.7434 C.ar    1  UNL1        0.0372
      6 C         143.6889  142.7702  165.9873 C.ar    1  UNL1        0.0002
      7 C         141.3354  140.6963  169.7240 C.3     1  UNL1        0.1315
      8 C         142.2249  139.6190  169.1777 C.3     1  UNL1        0.0268
      9 C         142.7057  140.0563  167.8258 C.3     1  UNL1        0.0221
     10 C         142.1134  141.4037  167.5366 C.3     1  UNL1        0.0772
     11 N         141.2665  141.7992  168.7098 N.3     1  UNL1       -0.2890
     12 H         140.3009  141.9339  168.4099 H       1  UNL1        0.1239
     13 N         139.8723  139.4562  171.4766 N.am    1  UNL1       -0.3277
     14 C         140.6373  140.6744  171.0515 C.2     1  UNL1        0.2336
     15 O         140.7043  141.8707  171.9540 O.2     1  UNL1       -0.2739
     16 H         139.4141  139.4418  172.3479 H       1  UNL1        0.1450
     17 H         139.8283  138.6710  170.8843 H       1  UNL1        0.1450
     18 O         142.9798  144.6425  162.5607 O.3     1  UNL1       -0.4535
     19 C         142.2030  144.3283  161.3166 C.ar    1  UNL1        0.1453
     20 C         142.6209  143.1850  160.4401 C.ar    1  UNL1        0.0375
     21 C         141.8440  142.8708  159.1960 C.ar    1  UNL1        0.0031
     22 C         140.6493  143.7000  158.8283 C.ar    1  UNL1        0.0002
     23 C         140.2314  144.8433  159.7048 C.ar    1  UNL1        0.0031
     24 C         141.0082  145.1575  160.9489 C.ar    1  UNL1        0.0375
@<TRIPOS>BOND
     1    13    14   am
     2    14    15    2
     3     7    14    1
     4     7     8    1
     5     8     9    1
     6     9    10    1
     7    10     1    1
     8     1     2   ar
     9     2     3   ar
    10     3     4   ar
    11     4    18    1
    12    18    19    1
    13    19    20   ar
    14    20    21   ar
    15    21    22   ar
    16    22    23   ar
    17    23    24   ar
    18     4     5   ar
    19     5     6   ar
    20    10    11    1
    21    11     7    1
    22     6     1   ar
    23    24    19   ar
    24    13    16    1
    25    13    17    1
    26    11    12    1
@<TRIPOS>MOLECULE
*****
 24 26 0 0 0
SMALL
GASTEIGER

@<TRIPOS>ATOM
      1 C         141.0699  139.3235  165.9217 C.ar    1  UNL1       -0.0078
      2 C         139.7480  139.5506  165.2502 C.ar    1  UNL1        0.0002
      3 C         139.4825  138.9590  163.8976 C.ar    1  UNL1        0.0372
      4 C         140.5388  138.1403  163.2166 C.ar    1  UNL1        0.1453
      5 C         141.8607  137.9132  163.8881 C.ar    1  UNL1        0.0372
      6 C         142.1263  138.5048  165.2406 C.ar    1  UNL1        0.0002
      7 C         141.1051  140.5280  169.6113 C.3     1  UNL1        0.1315
      8 C         142.3836  141.1231  169.1000 C.3     1  UNL1        0.0268
      9 C         142.5260  140.7443  167.6556 C.3     1  UNL1        0.0221
     10 C         141.3356  139.9152  167.2743 C.3     1  UNL1        0.0772
     11 N         140.4574  139.7815  168.4830 N.3     1  UNL1       -0.2890
     12 H         140.3577  138.7972  168.7313 H       1  UNL1        0.1239
     13 N         139.8436  139.5069  171.6401 N.am    1  UNL1       -0.3277
     14 C         140.5685  140.6569  171.0062 C.2     1  UNL1        0.2336
     15 O         140.7569  141.9358  171.7670 O.2     1  UNL1       -0.2739
     16 H         139.4914  139.5915  172.5556 H       1  UNL1        0.1450
     17 H         139.7199  138.6675  171.1407 H       1  UNL1        0.1450
     18 O         140.2732  137.5487  161.8640 O.3     1  UNL1       -0.4535
     19 C         140.4880  138.3731  160.6294 C.ar    1  UNL1        0.1453
     20 C         139.3189  138.7591  159.7725 C.ar    1  UNL1        0.0375
     21 C         139.5337  139.5836  158.5379 C.ar    1  UNL1        0.0031
     22 C         140.9176  140.0221  158.1603 C.ar    1  UNL1        0.0002
     23 C         142.0867  139.6361  159.0172 C.ar    1  UNL1        0.0031
     24 C         141.8719  138.8116  160.2518 C.ar    1  UNL1        0.0375
@<TRIPOS>BOND
     1    13    14   am
     2    14    15    2
     3     7    14    1
     4     7     8    1
     5     8     9    1
     6     9    10    1
     7    10     1    1
     8     1     2   ar
     9     2     3   ar
    10     3     4   ar
    11     4    18    1
    12    18    19    1
    13    19    20   ar
    14    20    21   ar
    15    21    22   ar
    16    22    23   ar
    17    23    24   ar
    18     4     5   ar
    19     5     6   ar
    20    10    11    1
    21    11     7    1
    22     6     1   ar
    23    24    19   ar
    24    13    16    1
    25    13    17    1
    26    11    12    1
