@<TRIPOS>MOLECULE
*****
 29 32 0 0 0
SMALL
GASTEIGER

@<TRIPOS>ATOM
      1 C         138.9318  139.5538  167.0393 C.3     1  UNL1        0.0037
      2 C         137.7483  138.6660  166.7920 C.3     1  UNL1        0.0001
      3 C         138.3250  139.4770  165.6697 C.3     1  UNL1        0.0002
      4 C         138.3078  139.9009  164.2310 C.3     1  UNL1        0.0034
      5 C         137.8041  141.2633  163.8565 C.3     1  UNL1        0.0216
      6 C         137.7869  141.6871  162.4176 C.3     1  UNL1        0.0936
      7 N         138.2732  140.7486  161.3534 N.pl3   1  UNL1       -0.2782
      8 C         138.7769  139.3863  161.7279 C.3     1  UNL1        0.0936
      9 C         138.7942  138.9624  163.1666 C.3     1  UNL1        0.0216
     10 C         138.2560  141.1725  159.9147 C.ar    1  UNL1        0.2202
     11 N         137.6348  140.2837  158.8783 N.ar    1  UNL1       -0.2112
     12 C         137.6175  140.7076  157.4395 C.ar    1  UNL1        0.1147
     13 C         138.2215  142.0204  157.0372 C.ar    1  UNL1        0.0960
     14 CL        138.2042  142.4443  155.5985 Cl      1  UNL1       -0.0790
     15 C         138.8427  142.9092  158.0736 C.ar    1  UNL1        0.1147
     16 N         138.8599  142.4853  159.5123 N.ar    1  UNL1       -0.2112
     17 C         139.9654  140.1107  167.9730 C.3     1  UNL1        0.0474
     18 C         140.8123  141.2731  167.5470 C.3     1  UNL1        0.2071
     19 O         140.1810  142.6121  167.3052 O.3     1  UNL1       -0.4602
     20 C         140.2541  144.4232  163.1863 C.ar    1  UNL1        0.1250
     21 C         141.2940  143.4172  163.5818 C.ar    1  UNL1        0.0247
     22 C         141.2696  142.8135  164.9548 C.ar    1  UNL1        0.0590
     23 C         140.2054  143.2158  165.9322 C.ar    1  UNL1        0.2249
     24 N         139.1655  144.2218  165.5367 N.ar    1  UNL1       -0.2088
     25 C         139.1898  144.8255  164.1638 C.ar    1  UNL1        0.1203
     26 C         140.3028  145.6305  160.4404 C.3     1  UNL1        0.1816
     27 S         140.2784  145.0269  161.8134 S.O2    1  UNL1        0.0119
     28 O         141.6159  144.3968  161.5601 O.2     1  UNL1       -0.1685
     29 O         138.9409  145.6569  162.0667 O.2     1  UNL1       -0.1685
@<TRIPOS>BOND
     1    26    27    1
     2    27    28    2
     3    27    29    2
     4    27    20    1
     5    20    21   ar
     6    21    22   ar
     7    22    23   ar
     8    23    19    1
     9    19    18    1
    10    18    17    1
    11     1    17    1
    12     1     2    1
    13     2     3    1
    14     3     4    1
    15     4     5    1
    16     5     6    1
    17     6     7    1
    18     7    10    1
    19    10    11   ar
    20    11    12   ar
    21    12    13   ar
    22    13    14    1
    23    13    15   ar
    24    15    16   ar
    25     7     8    1
    26     8     9    1
    27    23    24   ar
    28    24    25   ar
    29    25    20   ar
    30     3     1    1
    31     9     4    1
    32    16    10   ar
@<TRIPOS>MOLECULE
*****
 29 32 0 0 0
SMALL
GASTEIGER

@<TRIPOS>ATOM
      1 C         139.2783  139.7883  167.7950 C.3     1  UNL1        0.0037
      2 C         138.3102  139.0055  166.9584 C.3     1  UNL1        0.0001
      3 C         139.1238  140.1013  166.3362 C.3     1  UNL1        0.0002
      4 C         139.5043  140.9148  165.1348 C.3     1  UNL1        0.0034
      5 C         140.0758  140.2406  163.9229 C.3     1  UNL1        0.0216
      6 C         140.4564  141.0541  162.7215 C.3     1  UNL1        0.0936
      7 N         140.2654  142.5418  162.7320 N.pl3   1  UNL1       -0.2782
      8 C         139.6940  143.2161  163.9439 C.3     1  UNL1        0.0936
      9 C         139.3134  142.4026  165.1453 C.3     1  UNL1        0.0216
     10 C         140.6460  143.3553  161.5306 C.ar    1  UNL1        0.2202
     11 N         140.1308  144.7559  161.3794 N.ar    1  UNL1       -0.2112
     12 C         140.5114  145.5694  160.1779 C.ar    1  UNL1        0.1147
     13 C         141.4071  144.9823  159.1277 C.ar    1  UNL1        0.0960
     14 CL        141.7876  145.7957  157.9263 Cl      1  UNL1       -0.0790
     15 C         141.9223  143.5816  159.2789 C.ar    1  UNL1        0.1147
     16 N         141.5417  142.7682  160.4803 N.ar    1  UNL1       -0.2112
     17 C         139.9264  140.0595  169.1204 C.3     1  UNL1        0.0474
     18 C         141.4200  140.0080  169.2494 C.3     1  UNL1        0.2071
     19 O         142.2485  139.4229  168.1444 O.3     1  UNL1       -0.4602
     20 C         143.5679  142.0118  164.7083 C.ar    1  UNL1        0.1250
     21 C         142.9755  142.6388  165.9355 C.ar    1  UNL1        0.0247
     22 C         142.5357  141.7758  167.0809 C.ar    1  UNL1        0.0590
     23 C         142.6883  140.2858  166.9990 C.ar    1  UNL1        0.2249
     24 N         143.2806  139.6589  165.7719 N.ar    1  UNL1       -0.2088
     25 C         143.7204  140.5219  164.6265 C.ar    1  UNL1        0.1203
     26 C         144.4475  143.7378  162.4176 C.3     1  UNL1        0.1816
     27 S         144.0077  142.8748  163.5630 S.O2    1  UNL1        0.0119
     28 O         144.0464  144.0652  164.4748 O.2     1  UNL1       -0.1685
     29 O         143.9689  141.6844  162.6512 O.2     1  UNL1       -0.1685
@<TRIPOS>BOND
     1    26    27    1
     2    27    28    2
     3    27    29    2
     4    27    20    1
     5    20    21   ar
     6    21    22   ar
     7    22    23   ar
     8    23    19    1
     9    19    18    1
    10    18    17    1
    11     1    17    1
    12     1     2    1
    13     2     3    1
    14     3     4    1
    15     4     5    1
    16     5     6    1
    17     6     7    1
    18     7    10    1
    19    10    11   ar
    20    11    12   ar
    21    12    13   ar
    22    13    14    1
    23    13    15   ar
    24    15    16   ar
    25     7     8    1
    26     8     9    1
    27    23    24   ar
    28    24    25   ar
    29    25    20   ar
    30     3     1    1
    31     9     4    1
    32    16    10   ar
@<TRIPOS>MOLECULE
*****
 29 32 0 0 0
SMALL
GASTEIGER

@<TRIPOS>ATOM
      1 C         142.4873  141.8276  170.1426 C.3     1  UNL1        0.0037
      2 C         143.8324  142.4362  169.8775 C.3     1  UNL1        0.0001
      3 C         143.1339  141.6619  168.7994 C.3     1  UNL1        0.0002
      4 C         143.1040  141.1191  167.4014 C.3     1  UNL1        0.0034
      5 C         142.9635  139.6433  167.1726 C.3     1  UNL1        0.0216
      6 C         142.9335  139.1005  165.7745 C.3     1  UNL1        0.0936
      7 N         143.0440  140.0335  164.6053 N.pl3   1  UNL1       -0.2782
      8 C         143.1846  141.5093  164.8340 C.3     1  UNL1        0.0936
      9 C         143.2145  142.0521  166.2320 C.3     1  UNL1        0.0216
     10 C         143.0141  139.4908  163.2073 C.ar    1  UNL1        0.2202
     11 N         143.8535  140.1252  162.1383 N.ar    1  UNL1       -0.2112
     12 C         143.8235  139.5823  160.7402 C.ar    1  UNL1        0.1147
     13 C         142.9541  138.4051  160.4112 C.ar    1  UNL1        0.0960
     14 CL        142.9241  137.8623  159.0132 Cl      1  UNL1       -0.0790
     15 C         142.1146  137.7707  161.4803 C.ar    1  UNL1        0.1147
     16 N         142.1446  138.3135  162.8783 N.ar    1  UNL1       -0.2112
     17 C         141.3374  141.5720  171.0713 C.3     1  UNL1        0.0474
     18 C         140.4721  140.3620  170.8782 C.3     1  UNL1        0.2071
     19 O         139.1294  140.4970  170.2234 O.3     1  UNL1       -0.4602
     20 C         138.6557  139.5611  165.8473 C.ar    1  UNL1        0.1250
     21 C         139.5288  140.7014  166.2802 C.ar    1  UNL1        0.0247
     22 C         139.6867  141.0134  167.7389 C.ar    1  UNL1        0.0590
     23 C         138.9715  140.1850  168.7647 C.ar    1  UNL1        0.2249
     24 N         138.0984  139.0447  168.3318 N.ar    1  UNL1       -0.2088
     25 C         137.9406  138.7328  166.8731 C.ar    1  UNL1        0.1203
     26 C         138.3400  138.9372  162.9300 C.3     1  UNL1        0.1816
     27 S         138.4979  139.2491  164.3886 S.O2    1  UNL1        0.0119
     28 O         137.8440  140.5820  164.1744 O.2     1  UNL1       -0.1685
     29 O         139.1517  137.9163  164.6029 O.2     1  UNL1       -0.1685
@<TRIPOS>BOND
     1    26    27    1
     2    27    28    2
     3    27    29    2
     4    27    20    1
     5    20    21   ar
     6    21    22   ar
     7    22    23   ar
     8    23    19    1
     9    19    18    1
    10    18    17    1
    11     1    17    1
    12     1     2    1
    13     2     3    1
    14     3     4    1
    15     4     5    1
    16     5     6    1
    17     6     7    1
    18     7    10    1
    19    10    11   ar
    20    11    12   ar
    21    12    13   ar
    22    13    14    1
    23    13    15   ar
    24    15    16   ar
    25     7     8    1
    26     8     9    1
    27    23    24   ar
    28    24    25   ar
    29    25    20   ar
    30     3     1    1
    31     9     4    1
    32    16    10   ar
@<TRIPOS>MOLECULE
*****
 29 32 0 0 0
SMALL
GASTEIGER

@<TRIPOS>ATOM
      1 C         138.9107  139.5639  167.2538 C.3     1  UNL1        0.0037
      2 C         137.8085  138.7289  166.6725 C.3     1  UNL1        0.0001
      3 C         138.5793  139.6696  165.7946 C.3     1  UNL1        0.0002
      4 C         138.8331  140.2738  164.4454 C.3     1  UNL1        0.0034
      5 C         137.7144  140.9372  163.6982 C.3     1  UNL1        0.0216
      6 C         137.9682  141.5414  162.3489 C.3     1  UNL1        0.0936
      7 N         139.3407  141.4821  161.7468 N.pl3   1  UNL1       -0.2782
      8 C         140.4595  140.8188  162.4940 C.3     1  UNL1        0.0936
      9 C         140.2057  140.2146  163.8432 C.3     1  UNL1        0.0216
     10 C         139.5945  142.0863  160.3976 C.ar    1  UNL1        0.2202
     11 N         140.9991  142.2223  159.8888 N.ar    1  UNL1       -0.2112
     12 C         141.2528  142.8265  158.5395 C.ar    1  UNL1        0.1147
     13 C         140.1021  143.2947  157.6990 C.ar    1  UNL1        0.0960
     14 CL        140.3558  143.8988  156.3497 Cl      1  UNL1       -0.0790
     15 C         138.6975  143.1587  158.2077 C.ar    1  UNL1        0.1147
     16 N         138.4437  142.5546  159.5570 N.ar    1  UNL1       -0.2112
     17 C         139.7384  139.9850  168.4318 C.3     1  UNL1        0.0474
     18 C         141.1948  140.2959  168.2523 C.3     1  UNL1        0.2071
     19 O         141.6471  141.7201  168.1219 O.3     1  UNL1       -0.4602
     20 C         140.9165  143.9715  164.2947 C.ar    1  UNL1        0.1250
     21 C         139.8177  143.8362  165.3067 C.ar    1  UNL1        0.0247
     22 C         140.0612  143.0857  166.5825 C.ar    1  UNL1        0.0590
     23 C         141.4036  142.4706  166.8462 C.ar    1  UNL1        0.2249
     24 N         142.5024  142.6059  165.8342 N.ar    1  UNL1       -0.2088
     25 C         142.2589  143.3564  164.5585 C.ar    1  UNL1        0.1203
     26 C         140.4295  145.4724  161.7433 C.3     1  UNL1        0.1816
     27 S         140.6730  144.7220  163.0190 S.O2    1  UNL1        0.0119
     28 O         139.1996  144.7220  163.3003 O.2     1  UNL1       -0.1685
     29 O         142.1464  144.7219  162.7377 O.2     1  UNL1       -0.1685
@<TRIPOS>BOND
     1    26    27    1
     2    27    28    2
     3    27    29    2
     4    27    20    1
     5    20    21   ar
     6    21    22   ar
     7    22    23   ar
     8    23    19    1
     9    19    18    1
    10    18    17    1
    11     1    17    1
    12     1     2    1
    13     2     3    1
    14     3     4    1
    15     4     5    1
    16     5     6    1
    17     6     7    1
    18     7    10    1
    19    10    11   ar
    20    11    12   ar
    21    12    13   ar
    22    13    14    1
    23    13    15   ar
    24    15    16   ar
    25     7     8    1
    26     8     9    1
    27    23    24   ar
    28    24    25   ar
    29    25    20   ar
    30     3     1    1
    31     9     4    1
    32    16    10   ar
@<TRIPOS>MOLECULE
*****
 29 32 0 0 0
SMALL
GASTEIGER

@<TRIPOS>ATOM
      1 C         138.7661  139.4924  167.7110 C.3     1  UNL1        0.0037
      2 C         137.6778  138.6058  167.1823 C.3     1  UNL1        0.0001
      3 C         138.7919  139.0454  166.2794 C.3     1  UNL1        0.0002
      4 C         139.4501  139.0412  164.9315 C.3     1  UNL1        0.0034
      5 C         139.7647  140.3380  164.2464 C.3     1  UNL1        0.0216
      6 C         140.4229  140.3337  162.8985 C.3     1  UNL1        0.0936
      7 N         140.7665  139.0327  162.2358 N.pl3   1  UNL1       -0.2782
      8 C         140.4520  137.7359  162.9209 C.3     1  UNL1        0.0936
      9 C         139.7938  137.7401  164.2688 C.3     1  UNL1        0.0216
     10 C         141.4247  139.0284  160.8880 C.ar    1  UNL1        0.2202
     11 N         140.6519  138.5961  159.6772 N.ar    1  UNL1       -0.2112
     12 C         141.3102  138.5918  158.3294 C.ar    1  UNL1        0.1147
     13 C         142.7412  139.0199  158.1922 C.ar    1  UNL1        0.0960
     14 CL        143.3994  139.0157  156.8444 Cl      1  UNL1       -0.0790
     15 C         143.5140  139.4523  159.4029 C.ar    1  UNL1        0.1147
     16 N         142.8558  139.4565  160.7508 N.ar    1  UNL1       -0.2112
     17 C         139.3795  140.2624  168.8428 C.3     1  UNL1        0.0474
     18 C         140.8626  140.2181  169.0632 C.3     1  UNL1        0.2071
     19 O         141.7237  139.3468  168.1975 O.3     1  UNL1       -0.4602
     20 C         143.6745  141.0552  164.5198 C.ar    1  UNL1        0.1250
     21 C         143.6420  139.5704  164.7305 C.ar    1  UNL1        0.0247
     22 C         142.9917  139.0010  165.9565 C.ar    1  UNL1        0.0590
     23 C         142.3740  139.9163  166.9716 C.ar    1  UNL1        0.2249
     24 N         142.4065  141.4010  166.7609 N.ar    1  UNL1       -0.2088
     25 C         143.0568  141.9704  165.5350 C.ar    1  UNL1        0.1203
     26 C         144.9751  142.1941  162.0680 C.3     1  UNL1        0.1816
     27 S         144.3248  141.6246  163.2939 S.O2    1  UNL1        0.0119
     28 O         143.4516  142.8400  163.3953 O.2     1  UNL1       -0.1685
     29 O         145.1980  140.4092  163.1925 O.2     1  UNL1       -0.1685
@<TRIPOS>BOND
     1    26    27    1
     2    27    28    2
     3    27    29    2
     4    27    20    1
     5    20    21   ar
     6    21    22   ar
     7    22    23   ar
     8    23    19    1
     9    19    18    1
    10    18    17    1
    11     1    17    1
    12     1     2    1
    13     2     3    1
    14     3     4    1
    15     4     5    1
    16     5     6    1
    17     6     7    1
    18     7    10    1
    19    10    11   ar
    20    11    12   ar
    21    12    13   ar
    22    13    14    1
    23    13    15   ar
    24    15    16   ar
    25     7     8    1
    26     8     9    1
    27    23    24   ar
    28    24    25   ar
    29    25    20   ar
    30     3     1    1
    31     9     4    1
    32    16    10   ar
@<TRIPOS>MOLECULE
*****
 29 32 0 0 0
SMALL
GASTEIGER

@<TRIPOS>ATOM
      1 C         140.2492  140.0087  169.6460 C.3     1  UNL1        0.0037
      2 C         138.7832  140.3089  169.7479 C.3     1  UNL1        0.0001
      3 C         139.4217  140.1372  168.4015 C.3     1  UNL1        0.0002
      4 C         139.3127  140.1123  166.9057 C.3     1  UNL1        0.0034
      5 C         139.6220  141.3459  166.1105 C.3     1  UNL1        0.0216
      6 C         139.5129  141.3209  164.6146 C.3     1  UNL1        0.0936
      7 N         139.0945  140.0623  163.9141 N.pl3   1  UNL1       -0.2782
      8 C         138.7852  138.8287  164.7093 C.3     1  UNL1        0.0936
      9 C         138.8942  138.8536  166.2051 C.3     1  UNL1        0.0216
     10 C         138.9855  140.0374  162.4183 C.ar    1  UNL1        0.2202
     11 N         138.4317  141.2241  161.6868 N.ar    1  UNL1       -0.2112
     12 C         138.3227  141.1991  160.1909 C.ar    1  UNL1        0.1147
     13 C         138.7674  139.9874  159.4266 C.ar    1  UNL1        0.0960
     14 CL        138.6583  139.9625  157.9308 Cl      1  UNL1       -0.0790
     15 C         139.3211  138.8007  160.1582 C.ar    1  UNL1        0.1147
     16 N         139.4301  138.8257  161.6539 N.ar    1  UNL1       -0.2112
     17 C         141.5735  139.7612  170.3057 C.3     1  UNL1        0.0474
     18 C         142.8271  140.3267  169.7067 C.3     1  UNL1        0.2071
     19 O         142.7511  141.1821  168.4769 O.3     1  UNL1       -0.4602
     20 C         143.1391  139.3074  164.4045 C.ar    1  UNL1        0.1250
     21 C         143.3235  140.7867  164.5698 C.ar    1  UNL1        0.0247
     22 C         143.1942  141.4116  165.9273 C.ar    1  UNL1        0.0590
     23 C         142.8804  140.5572  167.1195 C.ar    1  UNL1        0.2249
     24 N         142.6960  139.0778  166.9542 N.ar    1  UNL1       -0.2088
     25 C         142.8253  138.4529  165.5967 C.ar    1  UNL1        0.1203
     26 C         143.3978  138.0575  161.6895 C.3     1  UNL1        0.1816
     27 S         143.2684  138.6824  163.0470 S.O2    1  UNL1        0.0119
     28 O         144.4084  139.6047  162.7311 O.2     1  UNL1       -0.1685
     29 O         142.1284  137.7602  163.3630 O.2     1  UNL1       -0.1685
@<TRIPOS>BOND
     1    26    27    1
     2    27    28    2
     3    27    29    2
     4    27    20    1
     5    20    21   ar
     6    21    22   ar
     7    22    23   ar
     8    23    19    1
     9    19    18    1
    10    18    17    1
    11     1    17    1
    12     1     2    1
    13     2     3    1
    14     3     4    1
    15     4     5    1
    16     5     6    1
    17     6     7    1
    18     7    10    1
    19    10    11   ar
    20    11    12   ar
    21    12    13   ar
    22    13    14    1
    23    13    15   ar
    24    15    16   ar
    25     7     8    1
    26     8     9    1
    27    23    24   ar
    28    24    25   ar
    29    25    20   ar
    30     3     1    1
    31     9     4    1
    32    16    10   ar
@<TRIPOS>MOLECULE
*****
 29 32 0 0 0
SMALL
GASTEIGER

@<TRIPOS>ATOM
      1 C         143.1974  138.6527  160.5834 C.3     1  UNL1        0.0037
      2 C         144.1273  137.7726  161.3648 C.3     1  UNL1        0.0001
      3 C         143.2144  138.7227  162.0816 C.3     1  UNL1        0.0002
      4 C         142.6971  139.3116  163.3605 C.3     1  UNL1        0.0034
      5 C         142.3325  140.7653  163.4233 C.3     1  UNL1        0.0216
      6 C         141.8152  141.3543  164.7022 C.3     1  UNL1        0.0936
      7 N         141.6625  140.4895  165.9183 N.pl3   1  UNL1       -0.2782
      8 C         142.0270  139.0359  165.8555 C.3     1  UNL1        0.0936
      9 C         142.5443  138.4469  164.5767 C.3     1  UNL1        0.0216
     10 C         141.1452  141.0785  167.1971 C.ar    1  UNL1        0.2202
     11 N         140.9417  142.5602  167.3121 N.ar    1  UNL1       -0.2112
     12 C         140.4244  143.1491  168.5911 C.ar    1  UNL1        0.1147
     13 C         140.1106  142.2564  169.7549 C.ar    1  UNL1        0.0960
     14 CL        139.5933  142.8454  171.0337 Cl      1  UNL1       -0.0790
     15 C         140.3141  140.7747  169.6399 C.ar    1  UNL1        0.1147
     16 N         140.8314  140.1858  168.3610 N.ar    1  UNL1       -0.2112
     17 C         142.6507  139.1204  159.2671 C.3     1  UNL1        0.0474
     18 C         141.2799  139.7252  159.1967 C.3     1  UNL1        0.2071
     19 O         140.0834  138.9218  159.6123 O.3     1  UNL1       -0.4602
     20 C         138.8128  138.8459  163.9285 C.ar    1  UNL1        0.1250
     21 C         138.7051  140.1156  163.1372 C.ar    1  UNL1        0.0247
     22 C         139.1286  140.1409  161.6985 C.ar    1  UNL1        0.0590
     23 C         139.6599  138.8965  161.0510 C.ar    1  UNL1        0.2249
     24 N         139.7676  137.6268  161.8424 N.ar    1  UNL1       -0.2088
     25 C         139.3441  137.6015  163.2811 C.ar    1  UNL1        0.1203
     26 C         137.9658  138.7954  166.8060 C.3     1  UNL1        0.1816
     27 S         138.3893  138.8207  165.3673 S.O2    1  UNL1        0.0119
     28 O         138.6541  137.3451  165.4193 O.2     1  UNL1       -0.1685
     29 O         138.1245  140.2962  165.3153 O.2     1  UNL1       -0.1685
@<TRIPOS>BOND
     1    26    27    1
     2    27    28    2
     3    27    29    2
     4    27    20    1
     5    20    21   ar
     6    21    22   ar
     7    22    23   ar
     8    23    19    1
     9    19    18    1
    10    18    17    1
    11     1    17    1
    12     1     2    1
    13     2     3    1
    14     3     4    1
    15     4     5    1
    16     5     6    1
    17     6     7    1
    18     7    10    1
    19    10    11   ar
    20    11    12   ar
    21    12    13   ar
    22    13    14    1
    23    13    15   ar
    24    15    16   ar
    25     7     8    1
    26     8     9    1
    27    23    24   ar
    28    24    25   ar
    29    25    20   ar
    30     3     1    1
    31     9     4    1
    32    16    10   ar
@<TRIPOS>MOLECULE
*****
 29 32 0 0 0
SMALL
GASTEIGER

@<TRIPOS>ATOM
      1 C         143.0356  138.9079  167.3285 C.3     1  UNL1        0.0037
      2 C         143.9413  138.1187  166.4304 C.3     1  UNL1        0.0001
      3 C         142.8442  138.9551  165.8415 C.3     1  UNL1        0.0002
      4 C         142.1003  139.4652  164.6431 C.3     1  UNL1        0.0034
      5 C         141.1152  138.5799  163.9390 C.3     1  UNL1        0.0216
      6 C         140.3713  139.0901  162.7405 C.3     1  UNL1        0.0936
      7 N         140.6125  140.4856  162.2462 N.pl3   1  UNL1       -0.2782
      8 C         141.5975  141.3710  162.9503 C.3     1  UNL1        0.0936
      9 C         142.3414  140.8608  164.1488 C.3     1  UNL1        0.0216
     10 C         139.8685  140.9958  161.0478 C.ar    1  UNL1        0.2202
     11 N         138.9602  140.0794  160.2828 N.ar    1  UNL1       -0.2112
     12 C         138.2163  140.5896  159.0843 C.ar    1  UNL1        0.1147
     13 C         138.3807  142.0162  158.6508 C.ar    1  UNL1        0.0960
     14 CL        137.6368  142.5263  157.4524 Cl      1  UNL1       -0.0790
     15 C         139.2890  142.9325  159.4158 C.ar    1  UNL1        0.1147
     16 N         140.0329  142.4224  160.6142 N.ar    1  UNL1       -0.2112
     17 C         142.6232  139.3363  168.7057 C.3     1  UNL1        0.0474
     18 C         141.3721  140.1414  168.8975 C.3     1  UNL1        0.2071
     19 O         140.1618  139.8579  168.0581 O.3     1  UNL1       -0.4602
     20 C         138.9153  142.7613  164.8540 C.ar    1  UNL1        0.1250
     21 C         139.9095  143.1771  165.8973 C.ar    1  UNL1        0.0247
     22 C         140.3249  142.2093  166.9654 C.ar    1  UNL1        0.0590
     23 C         139.7463  140.8257  166.9901 C.ar    1  UNL1        0.2249
     24 N         138.7521  140.4098  165.9467 N.ar    1  UNL1       -0.2088
     25 C         138.3366  141.3776  164.8786 C.ar    1  UNL1        0.1203
     26 C         138.0843  144.6969  162.7179 C.3     1  UNL1        0.1816
     27 S         138.4998  143.7291  163.7859 S.O2    1  UNL1        0.0119
     28 O         139.4166  144.7642  164.3672 O.2     1  UNL1       -0.1685
     29 O         137.5830  142.6939  163.2046 O.2     1  UNL1       -0.1685
@<TRIPOS>BOND
     1    26    27    1
     2    27    28    2
     3    27    29    2
     4    27    20    1
     5    20    21   ar
     6    21    22   ar
     7    22    23   ar
     8    23    19    1
     9    19    18    1
    10    18    17    1
    11     1    17    1
    12     1     2    1
    13     2     3    1
    14     3     4    1
    15     4     5    1
    16     5     6    1
    17     6     7    1
    18     7    10    1
    19    10    11   ar
    20    11    12   ar
    21    12    13   ar
    22    13    14    1
    23    13    15   ar
    24    15    16   ar
    25     7     8    1
    26     8     9    1
    27    23    24   ar
    28    24    25   ar
    29    25    20   ar
    30     3     1    1
    31     9     4    1
    32    16    10   ar
@<TRIPOS>MOLECULE
*****
 29 32 0 0 0
SMALL
GASTEIGER

@<TRIPOS>ATOM
      1 C         141.6687  139.7616  167.8458 C.3     1  UNL1        0.0037
      2 C         142.9253  139.1475  167.3038 C.3     1  UNL1        0.0001
      3 C         142.1768  140.1634  166.4929 C.3     1  UNL1        0.0002
      4 C         142.0381  140.9819  165.2436 C.3     1  UNL1        0.0034
      5 C         141.7659  142.4540  165.3377 C.3     1  UNL1        0.0216
      6 C         141.6271  143.2725  164.0884 C.3     1  UNL1        0.0936
      7 N         141.7606  142.6189  162.7449 N.pl3   1  UNL1       -0.2782
      8 C         142.0328  141.1468  162.6507 C.3     1  UNL1        0.0936
      9 C         142.1715  140.3283  163.9000 C.3     1  UNL1        0.0216
     10 C         141.6218  143.4374  161.4956 C.ar    1  UNL1        0.2202
     11 N         140.6915  144.6137  161.4691 N.ar    1  UNL1       -0.2112
     12 C         140.5527  145.4322  160.2197 C.ar    1  UNL1        0.1147
     13 C         141.3443  145.0744  158.9969 C.ar    1  UNL1        0.0960
     14 CL        141.2056  145.8929  157.7476 Cl      1  UNL1       -0.0790
     15 C         142.2747  143.8980  159.0234 C.ar    1  UNL1        0.1147
     16 N         142.4134  143.0795  160.2727 N.ar    1  UNL1       -0.2112
     17 C         140.6497  139.8842  168.9398 C.3     1  UNL1        0.0474
     18 C         139.2159  140.1663  168.6011 C.3     1  UNL1        0.2071
     19 O         138.4001  139.1373  167.8762 O.3     1  UNL1       -0.4602
     20 C         138.8033  138.6788  163.4178 C.ar    1  UNL1        0.1250
     21 C         138.5505  140.0323  164.0127 C.ar    1  UNL1        0.0247
     22 C         138.4161  140.1852  165.4988 C.ar    1  UNL1        0.0590
     23 C         138.5345  138.9845  166.3901 C.ar    1  UNL1        0.2249
     24 N         138.7873  137.6309  165.7951 N.ar    1  UNL1       -0.2088
     25 C         138.9217  137.4781  164.3090 C.ar    1  UNL1        0.1203
     26 C         139.0721  138.3730  160.4456 C.3     1  UNL1        0.1816
     27 S         138.9377  138.5259  161.9317 S.O2    1  UNL1        0.0119
     28 O         137.7928  139.4740  161.7306 O.2     1  UNL1       -0.1685
     29 O         140.0826  137.5778  162.1327 O.2     1  UNL1       -0.1685
@<TRIPOS>BOND
     1    26    27    1
     2    27    28    2
     3    27    29    2
     4    27    20    1
     5    20    21   ar
     6    21    22   ar
     7    22    23   ar
     8    23    19    1
     9    19    18    1
    10    18    17    1
    11     1    17    1
    12     1     2    1
    13     2     3    1
    14     3     4    1
    15     4     5    1
    16     5     6    1
    17     6     7    1
    18     7    10    1
    19    10    11   ar
    20    11    12   ar
    21    12    13   ar
    22    13    14    1
    23    13    15   ar
    24    15    16   ar
    25     7     8    1
    26     8     9    1
    27    23    24   ar
    28    24    25   ar
    29    25    20   ar
    30     3     1    1
    31     9     4    1
    32    16    10   ar
