@<TRIPOS>MOLECULE
*****
 32 35 0 0 0
SMALL
GASTEIGER

@<TRIPOS>ATOM
      1 C         138.5709  142.2297  161.7252 C.ar    1  UNL1        0.0503
      2 C         137.9260  142.9201  162.8902 C.ar    1  UNL1        0.0148
      3 C         137.9324  142.2725  164.2432 C.ar    1  UNL1        0.0060
      4 C         138.5838  140.9345  164.4311 C.ar    1  UNL1        0.0553
      5 C         139.2287  140.2440  163.2661 C.ar    1  UNL1        0.0060
      6 C         139.2223  140.8916  161.9132 C.ar    1  UNL1        0.0148
      7 C         138.5902  140.2869  165.7842 C.ar    1  UNL1        0.2512
      8 N         137.7609  139.1087  166.2017 N.ar    1  UNL1       -0.1058
      9 N         138.0852  138.7974  167.6327 N.ar    1  UNL1       -0.0923
     10 C         139.1150  139.7832  168.0996 C.ar    1  UNL1        0.3086
     11 O         139.4270  140.7037  166.9572 O.2     1  UNL1       -0.4048
     12 N         139.7254  139.8387  169.4687 N.pl3   1  UNL1       -0.2871
     13 H         139.8120  139.0162  170.0028 H       1  UNL1        0.1512
     14 C         140.2039  141.1473  170.0241 C.3     1  UNL1        0.0925
     15 C         141.5879  141.2602  170.5913 C.3     1  UNL1        0.0386
     16 C         142.7602  140.7307  169.8197 C.3     1  UNL1        0.0738
     17 N         142.7200  140.7017  168.3206 N.3     1  UNL1       -0.2726
     18 C         142.6865  141.9858  167.5461 C.3     1  UNL1        0.0721
     19 C         142.6462  141.9568  166.0470 C.3     1  UNL1        0.0174
     20 C         142.6395  140.6435  165.3222 C.3     1  UNL1        0.0029
     21 C         142.6730  139.3593  166.0966 C.3     1  UNL1        0.0174
     22 C         142.7133  139.3884  167.5958 C.3     1  UNL1        0.0721
     23 O         141.0366  143.6026  160.7076 O.2     1  UNL1       -0.2748
     24 C         139.7973  143.5637  159.8634 C.2     1  UNL1        0.2256
     25 N         138.5645  142.8773  160.3722 N.am    1  UNL1       -0.2839
     26 H         137.7511  142.8517  159.8181 H       1  UNL1        0.1549
     27 C         139.7908  144.2113  158.5103 C.3     1  UNL1        0.0768
     28 C         139.2124  143.4835  157.3332 C.3     1  UNL1        0.0091
     29 C         139.2060  144.1311  155.9803 C.3     1  UNL1        0.0005
     30 C         139.7780  145.5065  155.8044 C.3     1  UNL1        0.0000
     31 C         140.3565  146.2343  156.9815 C.3     1  UNL1        0.0005
     32 C         140.3629  145.5867  158.3345 C.3     1  UNL1        0.0091
@<TRIPOS>BOND
     1    23    24    2
     2    24    25   am
     3    25     1    1
     4     1     2   ar
     5     2     3   ar
     6     3     4   ar
     7     4     7    1
     8     7     8   ar
     9     8     9   ar
    10     9    10   ar
    11    10    12    1
    12    12    14    1
    13    14    15    1
    14    15    16    1
    15    16    17    1
    16    17    18    1
    17    18    19    1
    18    19    20    1
    19    20    21    1
    20    21    22    1
    21    10    11   ar
    22     4     5   ar
    23     5     6   ar
    24    24    27    1
    25    27    28    1
    26    28    29    1
    27    29    30    1
    28    30    31    1
    29    31    32    1
    30     6     1   ar
    31    32    27    1
    32    11     7   ar
    33    22    17    1
    34    25    26    1
    35    12    13    1
@<TRIPOS>MOLECULE
*****
 32 35 0 0 0
SMALL
GASTEIGER

@<TRIPOS>ATOM
      1 C         140.0225  138.3770  163.6193 C.ar    1  UNL1        0.0503
      2 C         138.6544  138.7016  164.1416 C.ar    1  UNL1        0.0148
      3 C         138.4715  139.0787  165.5819 C.ar    1  UNL1        0.0060
      4 C         139.6568  139.1311  166.4997 C.ar    1  UNL1        0.0553
      5 C         141.0249  138.8065  165.9773 C.ar    1  UNL1        0.0060
      6 C         141.2077  138.4294  164.5371 C.ar    1  UNL1        0.0148
      7 C         139.4739  139.5083  167.9400 C.ar    1  UNL1        0.2512
      8 N         138.1726  139.5364  168.6857 N.ar    1  UNL1       -0.1058
      9 N         138.4546  139.9689  170.0940 N.ar    1  UNL1       -0.0923
     10 C         139.9302  140.2082  170.2187 C.ar    1  UNL1        0.3086
     11 O         140.5601  139.9235  168.8875 O.2     1  UNL1       -0.4048
     12 N         140.6495  140.6539  171.4572 N.pl3   1  UNL1       -0.2871
     13 H         140.3692  140.3151  172.3381 H       1  UNL1        0.1512
     14 C         141.7958  141.6158  171.3537 C.3     1  UNL1        0.0925
     15 C         141.7925  142.6750  170.2916 C.3     1  UNL1        0.0386
     16 C         142.7082  142.5549  169.1096 C.3     1  UNL1        0.0738
     17 N         142.1401  142.5128  167.7221 N.3     1  UNL1       -0.2726
     18 C         143.0126  142.1228  166.5659 C.3     1  UNL1        0.0721
     19 C         142.4446  142.0808  165.1783 C.3     1  UNL1        0.0174
     20 C         141.0040  142.4287  164.9468 C.3     1  UNL1        0.0029
     21 C         140.1314  142.8187  166.1029 C.3     1  UNL1        0.0174
     22 C         140.6995  142.8608  167.4905 C.3     1  UNL1        0.0721
     23 O         141.1135  140.3804  161.6709 O.2     1  UNL1       -0.2748
     24 C         140.7509  139.0015  161.2048 C.2     1  UNL1        0.2256
     25 N         140.2054  137.9998  162.1789 N.am    1  UNL1       -0.2839
     26 H         139.9674  137.0949  161.8730 H       1  UNL1        0.1549
     27 C         140.9338  138.6244  159.7645 C.3     1  UNL1        0.0768
     28 C         142.3027  138.3059  159.2407 C.3     1  UNL1        0.0091
     29 C         142.4855  137.9288  157.8004 C.3     1  UNL1        0.0005
     30 C         141.2994  137.8702  156.8841 C.3     1  UNL1        0.0000
     31 C         139.9305  138.1888  157.4079 C.3     1  UNL1        0.0005
     32 C         139.7477  138.5659  158.8482 C.3     1  UNL1        0.0091
@<TRIPOS>BOND
     1    23    24    2
     2    24    25   am
     3    25     1    1
     4     1     2   ar
     5     2     3   ar
     6     3     4   ar
     7     4     7    1
     8     7     8   ar
     9     8     9   ar
    10     9    10   ar
    11    10    12    1
    12    12    14    1
    13    14    15    1
    14    15    16    1
    15    16    17    1
    16    17    18    1
    17    18    19    1
    18    19    20    1
    19    20    21    1
    20    21    22    1
    21    10    11   ar
    22     4     5   ar
    23     5     6   ar
    24    24    27    1
    25    27    28    1
    26    28    29    1
    27    29    30    1
    28    30    31    1
    29    31    32    1
    30     6     1   ar
    31    32    27    1
    32    11     7   ar
    33    22    17    1
    34    25    26    1
    35    12    13    1
@<TRIPOS>MOLECULE
*****
 32 35 0 0 0
SMALL
GASTEIGER

@<TRIPOS>ATOM
      1 C         138.4343  139.1932  162.8495 C.ar    1  UNL1        0.0503
      2 C         138.8742  138.0569  163.7243 C.ar    1  UNL1        0.0148
      3 C         138.9475  138.2400  165.2113 C.ar    1  UNL1        0.0060
      4 C         138.5808  139.5594  165.8234 C.ar    1  UNL1        0.0553
      5 C         138.1409  140.6957  164.9487 C.ar    1  UNL1        0.0060
      6 C         138.0676  140.5126  163.4617 C.ar    1  UNL1        0.0148
      7 C         138.6541  139.7425  167.3105 C.ar    1  UNL1        0.2512
      8 N         137.8505  138.9931  168.3317 N.ar    1  UNL1       -0.1058
      9 N         138.2435  139.4945  169.6897 N.ar    1  UNL1       -0.0923
     10 C         139.2900  140.5537  169.5077 C.ar    1  UNL1        0.3086
     11 O         139.5437  140.7070  168.0373 O.2     1  UNL1       -0.4048
     12 N         139.9643  141.3244  170.6038 N.pl3   1  UNL1       -0.2871
     13 H         139.5279  142.1193  170.9871 H       1  UNL1        0.1512
     14 C         141.3036  140.8840  171.1159 C.3     1  UNL1        0.0925
     15 C         142.2637  140.1842  170.2001 C.3     1  UNL1        0.0386
     16 C         142.9958  140.9606  169.1460 C.3     1  UNL1        0.0738
     17 N         142.7349  140.6852  167.6948 N.3     1  UNL1       -0.2726
     18 C         142.4972  141.8227  166.7463 C.3     1  UNL1        0.0721
     19 C         142.2363  141.5473  165.2952 C.3     1  UNL1        0.0174
     20 C         142.2131  140.1343  164.7923 C.3     1  UNL1        0.0029
     21 C         142.4508  138.9967  165.7407 C.3     1  UNL1        0.0174
     22 C         142.7117  139.2722  167.1920 C.3     1  UNL1        0.0721
     23 O         140.7631  139.9715  161.1258 O.2     1  UNL1       -0.2748
     24 C         139.5254  139.3993  160.5007 C.2     1  UNL1        0.2256
     25 N         138.3610  139.0102  161.3625 N.am    1  UNL1       -0.2839
     26 H         137.5487  138.6346  160.9522 H       1  UNL1        0.1549
     27 C         139.4521  139.2162  159.0136 C.3     1  UNL1        0.0768
     28 C         140.1418  138.0520  158.3664 C.3     1  UNL1        0.0091
     29 C         140.0686  137.8690  156.8795 C.3     1  UNL1        0.0005
     30 C         139.3055  138.8502  156.0397 C.3     1  UNL1        0.0000
     31 C         138.6158  140.0144  156.6870 C.3     1  UNL1        0.0005
     32 C         138.6891  140.1974  158.1739 C.3     1  UNL1        0.0091
@<TRIPOS>BOND
     1    23    24    2
     2    24    25   am
     3    25     1    1
     4     1     2   ar
     5     2     3   ar
     6     3     4   ar
     7     4     7    1
     8     7     8   ar
     9     8     9   ar
    10     9    10   ar
    11    10    12    1
    12    12    14    1
    13    14    15    1
    14    15    16    1
    15    16    17    1
    16    17    18    1
    17    18    19    1
    18    19    20    1
    19    20    21    1
    20    21    22    1
    21    10    11   ar
    22     4     5   ar
    23     5     6   ar
    24    24    27    1
    25    27    28    1
    26    28    29    1
    27    29    30    1
    28    30    31    1
    29    31    32    1
    30     6     1   ar
    31    32    27    1
    32    11     7   ar
    33    22    17    1
    34    25    26    1
    35    12    13    1
@<TRIPOS>MOLECULE
*****
 32 35 0 0 0
SMALL
GASTEIGER

@<TRIPOS>ATOM
      1 C         142.8970  138.7454  157.6497 C.ar    1  UNL1        0.0503
      2 C         142.9827  139.8599  156.6495 C.ar    1  UNL1        0.0148
      3 C         142.6478  141.2632  157.0598 C.ar    1  UNL1        0.0060
      4 C         142.2272  141.5521  158.4703 C.ar    1  UNL1        0.0553
      5 C         142.1415  140.4376  159.4706 C.ar    1  UNL1        0.0060
      6 C         142.4764  139.0343  159.0603 C.ar    1  UNL1        0.0148
      7 C         141.8924  142.9556  158.8806 C.ar    1  UNL1        0.2512
      8 N         142.6769  144.1863  158.5345 N.ar    1  UNL1       -0.1058
      9 N         141.9836  145.3660  159.1490 N.ar    1  UNL1       -0.0923
     10 C         140.7706  144.8644  159.8750 C.ar    1  UNL1        0.3086
     11 O         140.7142  143.3746  159.7091 O.2     1  UNL1       -0.4048
     12 N         139.7867  145.7049  160.6336 N.pl3   1  UNL1       -0.2871
     13 H         138.9960  146.0712  160.1756 H       1  UNL1        0.1512
     14 C         140.0076  145.9873  162.0901 C.3     1  UNL1        0.0925
     15 C         140.6816  144.9665  162.9582 C.3     1  UNL1        0.0386
     16 C         142.0447  145.2422  163.5202 C.3     1  UNL1        0.0738
     17 N         143.1291  144.2134  163.3966 N.3     1  UNL1       -0.2726
     18 C         143.7657  143.6427  164.6291 C.3     1  UNL1        0.0721
     19 C         144.8501  142.6139  164.5054 C.3     1  UNL1        0.0174
     20 C         145.2981  142.1556  163.1492 C.3     1  UNL1        0.0029
     21 C         144.6615  142.7262  161.9167 C.3     1  UNL1        0.0174
     22 C         143.5770  143.7551  162.0403 C.3     1  UNL1        0.0721
     23 O         140.7416  136.9271  156.6259 O.2     1  UNL1       -0.2748
     24 C         142.1542  136.4328  156.7275 C.2     1  UNL1        0.2256
     25 N         143.2319  137.3420  157.2394 N.am    1  UNL1       -0.2839
     26 H         144.1590  137.0176  157.3061 H       1  UNL1        0.1549
     27 C         142.4891  135.0294  156.3172 C.3     1  UNL1        0.0768
     28 C         141.5611  134.2698  155.4162 C.3     1  UNL1        0.0091
     29 C         141.8961  132.8664  155.0060 C.3     1  UNL1        0.0005
     30 C         143.1589  132.2227  155.4968 C.3     1  UNL1        0.0000
     31 C         144.0868  132.9823  156.3978 C.3     1  UNL1        0.0005
     32 C         143.7519  134.3856  156.8080 C.3     1  UNL1        0.0091
@<TRIPOS>BOND
     1    23    24    2
     2    24    25   am
     3    25     1    1
     4     1     2   ar
     5     2     3   ar
     6     3     4   ar
     7     4     7    1
     8     7     8   ar
     9     8     9   ar
    10     9    10   ar
    11    10    12    1
    12    12    14    1
    13    14    15    1
    14    15    16    1
    15    16    17    1
    16    17    18    1
    17    18    19    1
    18    19    20    1
    19    20    21    1
    20    21    22    1
    21    10    11   ar
    22     4     5   ar
    23     5     6   ar
    24    24    27    1
    25    27    28    1
    26    28    29    1
    27    29    30    1
    28    30    31    1
    29    31    32    1
    30     6     1   ar
    31    32    27    1
    32    11     7   ar
    33    22    17    1
    34    25    26    1
    35    12    13    1
@<TRIPOS>MOLECULE
*****
 32 35 0 0 0
SMALL
GASTEIGER

@<TRIPOS>ATOM
      1 C         143.9907  142.8133  158.2151 C.ar    1  UNL1        0.0503
      2 C         143.7193  141.6567  159.1308 C.ar    1  UNL1        0.0148
      3 C         142.4156  141.5736  159.8679 C.ar    1  UNL1        0.0060
      4 C         141.3833  142.6471  159.6893 C.ar    1  UNL1        0.0553
      5 C         141.6547  143.8037  158.7735 C.ar    1  UNL1        0.0060
      6 C         142.9584  143.8868  158.0364 C.ar    1  UNL1        0.0148
      7 C         140.0795  142.5640  160.4265 C.ar    1  UNL1        0.2512
      8 N         138.9861  143.5906  160.4025 N.ar    1  UNL1       -0.1058
      9 N         137.8711  143.1008  161.2782 N.ar    1  UNL1       -0.0923
     10 C         138.2754  141.7714  161.8434 C.ar    1  UNL1        0.3086
     11 O         139.6403  141.4397  161.3170 O.2     1  UNL1       -0.4048
     12 N         137.4583  140.9228  162.7719 N.pl3   1  UNL1       -0.2871
     13 H         136.4792  141.0224  162.7965 H       1  UNL1        0.1512
     14 C         138.1330  139.9225  163.6630 C.3     1  UNL1        0.0925
     15 C         138.1439  140.1287  165.1488 C.3     1  UNL1        0.0386
     16 C         139.1717  141.0244  165.7742 C.3     1  UNL1        0.0738
     17 N         139.6032  142.2767  165.0702 N.3     1  UNL1       -0.2726
     18 C         140.9436  142.3363  164.3997 C.3     1  UNL1        0.0721
     19 C         141.3751  143.5885  163.6957 C.3     1  UNL1        0.0174
     20 C         140.4662  144.7813  163.6623 C.3     1  UNL1        0.0029
     21 C         139.1257  144.7217  164.3328 C.3     1  UNL1        0.0174
     22 C         138.6942  143.4694  165.0368 C.3     1  UNL1        0.0721
     23 O         144.1337  142.0185  155.3258 O.2     1  UNL1       -0.2748
     24 C         145.3659  142.4990  156.0333 C.2     1  UNL1        0.2256
     25 N         145.2945  142.8964  157.4779 N.am    1  UNL1       -0.2839
     26 H         146.1033  143.2118  157.9423 H       1  UNL1        0.1549
     27 C         146.6697  142.5822  155.2961 C.3     1  UNL1        0.0768
     28 C         146.8030  143.4878  154.1079 C.3     1  UNL1        0.0091
     29 C         148.1067  143.5709  153.3708 C.3     1  UNL1        0.0005
     30 C         149.2772  142.7484  153.8220 C.3     1  UNL1        0.0000
     31 C         149.1439  141.8428  155.0102 C.3     1  UNL1        0.0005
     32 C         147.8401  141.7597  155.7473 C.3     1  UNL1        0.0091
@<TRIPOS>BOND
     1    23    24    2
     2    24    25   am
     3    25     1    1
     4     1     2   ar
     5     2     3   ar
     6     3     4   ar
     7     4     7    1
     8     7     8   ar
     9     8     9   ar
    10     9    10   ar
    11    10    12    1
    12    12    14    1
    13    14    15    1
    14    15    16    1
    15    16    17    1
    16    17    18    1
    17    18    19    1
    18    19    20    1
    19    20    21    1
    20    21    22    1
    21    10    11   ar
    22     4     5   ar
    23     5     6   ar
    24    24    27    1
    25    27    28    1
    26    28    29    1
    27    29    30    1
    28    30    31    1
    29    31    32    1
    30     6     1   ar
    31    32    27    1
    32    11     7   ar
    33    22    17    1
    34    25    26    1
    35    12    13    1
@<TRIPOS>MOLECULE
*****
 32 35 0 0 0
SMALL
GASTEIGER

@<TRIPOS>ATOM
      1 C         142.4982  138.1076  158.1693 C.ar    1  UNL1        0.0503
      2 C         142.5094  139.5447  157.7397 C.ar    1  UNL1        0.0148
      3 C         142.9986  140.6050  158.6811 C.ar    1  UNL1        0.0060
      4 C         143.4766  140.2283  160.0521 C.ar    1  UNL1        0.0553
      5 C         143.4655  138.7912  160.4816 C.ar    1  UNL1        0.0060
      6 C         142.9763  137.7308  159.5402 C.ar    1  UNL1        0.0148
      7 C         143.9658  141.2887  160.9935 C.ar    1  UNL1        0.2512
      8 N         145.0032  141.1088  162.0620 N.ar    1  UNL1       -0.1058
      9 N         145.1821  142.4240  162.7606 N.ar    1  UNL1       -0.0923
     10 C         144.2553  143.4169  162.1239 C.ar    1  UNL1        0.3086
     11 O         143.5036  142.7152  161.0318 O.2     1  UNL1       -0.4048
     12 N         144.1063  144.8583  162.5112 N.pl3   1  UNL1       -0.2871
     13 H         144.5178  145.5616  161.9586 H       1  UNL1        0.1512
     14 C         143.3305  145.2283  163.7405 C.3     1  UNL1        0.0925
     15 C         141.8327  145.1471  163.7348 C.3     1  UNL1        0.0386
     16 C         141.1360  144.0870  164.5353 C.3     1  UNL1        0.0738
     17 N         141.6185  142.6679  164.4812 N.3     1  UNL1       -0.2726
     18 C         141.0491  141.7201  163.4676 C.3     1  UNL1        0.0721
     19 C         141.5317  140.3009  163.4135 C.3     1  UNL1        0.0174
     20 C         142.5838  139.8294  164.3731 C.3     1  UNL1        0.0029
     21 C         143.1533  140.7771  165.3867 C.3     1  UNL1        0.0174
     22 C         142.6706  142.1964  165.4408 C.3     1  UNL1        0.0721
     23 O         144.3273  137.0185  156.0554 O.2     1  UNL1       -0.2748
     24 C         142.9236  136.5026  156.1709 C.2     1  UNL1        0.2256
     25 N         142.0090  137.0472  157.2278 N.am    1  UNL1       -0.2839
     26 H         141.0877  136.7086  157.3036 H       1  UNL1        0.1549
     27 C         142.4343  135.4422  155.2295 C.3     1  UNL1        0.0768
     28 C         142.2784  135.7493  153.7696 C.3     1  UNL1        0.0091
     29 C         141.7892  134.6889  152.8283 C.3     1  UNL1        0.0005
     30 C         141.4560  133.3214  153.3468 C.3     1  UNL1        0.0000
     31 C         141.6119  133.0143  154.8067 C.3     1  UNL1        0.0005
     32 C         142.1011  134.0747  155.7481 C.3     1  UNL1        0.0091
@<TRIPOS>BOND
     1    23    24    2
     2    24    25   am
     3    25     1    1
     4     1     2   ar
     5     2     3   ar
     6     3     4   ar
     7     4     7    1
     8     7     8   ar
     9     8     9   ar
    10     9    10   ar
    11    10    12    1
    12    12    14    1
    13    14    15    1
    14    15    16    1
    15    16    17    1
    16    17    18    1
    17    18    19    1
    18    19    20    1
    19    20    21    1
    20    21    22    1
    21    10    11   ar
    22     4     5   ar
    23     5     6   ar
    24    24    27    1
    25    27    28    1
    26    28    29    1
    27    29    30    1
    28    30    31    1
    29    31    32    1
    30     6     1   ar
    31    32    27    1
    32    11     7   ar
    33    22    17    1
    34    25    26    1
    35    12    13    1
@<TRIPOS>MOLECULE
*****
 32 35 0 0 0
SMALL
GASTEIGER

@<TRIPOS>ATOM
      1 C         141.3292  138.5655  163.7894 C.ar    1  UNL1        0.0503
      2 C         140.2767  138.9229  162.7822 C.ar    1  UNL1        0.0148
      3 C         140.5935  138.8738  161.3169 C.ar    1  UNL1        0.0060
      4 C         141.9628  138.4674  160.8588 C.ar    1  UNL1        0.0553
      5 C         143.0153  138.1100  161.8659 C.ar    1  UNL1        0.0060
      6 C         142.6985  138.1590  163.3313 C.ar    1  UNL1        0.0148
      7 C         142.2795  138.4184  159.3934 C.ar    1  UNL1        0.2512
      8 N         143.5558  138.8755  158.7514 N.ar    1  UNL1       -0.1058
      9 N         143.4407  138.6433  157.2740 N.ar    1  UNL1       -0.0923
     10 C         142.0932  138.0427  157.0028 C.ar    1  UNL1        0.3086
     11 O         141.3756  137.9037  158.3127 O.2     1  UNL1       -0.4048
     12 N         141.5574  137.6500  155.6579 N.pl3   1  UNL1       -0.2871
     13 H         141.4239  138.3338  154.9624 H       1  UNL1        0.1512
     14 C         141.2251  136.2153  155.3727 C.3     1  UNL1        0.0925
     15 C         142.2239  135.3379  154.6780 C.3     1  UNL1        0.0386
     16 C         142.2035  133.8549  154.9023 C.3     1  UNL1        0.0738
     17 N         143.2306  133.2165  155.7896 N.3     1  UNL1       -0.2726
     18 C         143.5527  133.8248  157.1224 C.3     1  UNL1        0.0721
     19 C         144.5797  133.1863  158.0098 C.3     1  UNL1        0.0174
     20 C         145.2847  131.9395  157.5644 C.3     1  UNL1        0.0029
     21 C         144.9627  131.3312  156.2317 C.3     1  UNL1        0.0174
     22 C         143.9356  131.9697  155.3443 C.3     1  UNL1        0.0721
     23 O         141.9604  141.0303  165.3789 O.2     1  UNL1       -0.2748
     24 C         141.3281  139.8469  166.0495 C.2     1  UNL1        0.2256
     25 N         141.0125  138.6145  165.2548 N.am    1  UNL1       -0.2839
     26 H         140.5975  137.8378  165.6950 H       1  UNL1        0.1549
     27 C         141.0113  139.8959  167.5149 C.3     1  UNL1        0.0768
     28 C         139.6272  140.2502  167.9716 C.3     1  UNL1        0.0091
     29 C         139.3105  140.2992  169.4370 C.3     1  UNL1        0.0005
     30 C         140.3780  139.9939  170.4456 C.3     1  UNL1        0.0000
     31 C         141.7621  139.6396  169.9889 C.3     1  UNL1        0.0005
     32 C         142.0788  139.5906  168.5236 C.3     1  UNL1        0.0091
@<TRIPOS>BOND
     1    23    24    2
     2    24    25   am
     3    25     1    1
     4     1     2   ar
     5     2     3   ar
     6     3     4   ar
     7     4     7    1
     8     7     8   ar
     9     8     9   ar
    10     9    10   ar
    11    10    12    1
    12    12    14    1
    13    14    15    1
    14    15    16    1
    15    16    17    1
    16    17    18    1
    17    18    19    1
    18    19    20    1
    19    20    21    1
    20    21    22    1
    21    10    11   ar
    22     4     5   ar
    23     5     6   ar
    24    24    27    1
    25    27    28    1
    26    28    29    1
    27    29    30    1
    28    30    31    1
    29    31    32    1
    30     6     1   ar
    31    32    27    1
    32    11     7   ar
    33    22    17    1
    34    25    26    1
    35    12    13    1
@<TRIPOS>MOLECULE
*****
 32 35 0 0 0
SMALL
GASTEIGER

@<TRIPOS>ATOM
      1 C         139.4206  141.7047  164.2160 C.ar    1  UNL1        0.0503
      2 C         138.4135  142.6612  163.6497 C.ar    1  UNL1        0.0148
      3 C         138.0114  142.5604  162.2081 C.ar    1  UNL1        0.0060
      4 C         138.6165  141.5032  161.3329 C.ar    1  UNL1        0.0553
      5 C         139.6237  140.5467  161.8992 C.ar    1  UNL1        0.0060
      6 C         140.0257  140.6475  163.3407 C.ar    1  UNL1        0.0148
      7 C         138.2144  141.4025  159.8912 C.ar    1  UNL1        0.2512
      8 N         137.7574  140.1587  159.1882 N.ar    1  UNL1       -0.1058
      9 N         137.4593  140.5153  157.7621 N.ar    1  UNL1       -0.0923
     10 C         137.7320  141.9795  157.5837 C.ar    1  UNL1        0.3086
     11 O         138.1987  142.5278  158.8996 O.2     1  UNL1       -0.4048
     12 N         137.5670  142.7586  156.3125 N.pl3   1  UNL1       -0.2871
     13 H         136.6770  142.8464  155.9010 H       1  UNL1        0.1512
     14 C         138.7581  143.4040  155.6684 C.3     1  UNL1        0.0925
     15 C         139.5457  144.4392  156.4154 C.3     1  UNL1        0.0386
     16 C         140.8287  144.0603  157.0938 C.3     1  UNL1        0.0738
     17 N         140.9548  144.1848  158.5832 N.3     1  UNL1       -0.2726
     18 C         141.7451  143.1711  159.3564 C.3     1  UNL1        0.0721
     19 C         141.8712  143.2956  160.8459 C.3     1  UNL1        0.0174
     20 C         141.2069  144.4338  161.5623 C.3     1  UNL1        0.0029
     21 C         140.4166  145.4475  160.7891 C.3     1  UNL1        0.0174
     22 C         140.2905  145.3230  159.2996 C.3     1  UNL1        0.0721
     23 O         142.0026  143.0368  164.9636 O.2     1  UNL1       -0.2748
     24 C         141.1137  142.4715  166.0314 C.2     1  UNL1        0.2256
     25 N         139.8227  141.8055  165.6576 N.am    1  UNL1       -0.2839
     26 H         139.2393  141.4344  166.3585 H       1  UNL1        0.1549
     27 C         141.5158  142.5722  167.4730 C.3     1  UNL1        0.0768
     28 C         140.5225  143.0326  168.4983 C.3     1  UNL1        0.0091
     29 C         140.9246  143.1333  169.9399 C.3     1  UNL1        0.0005
     30 C         142.3201  142.7736  170.3561 C.3     1  UNL1        0.0000
     31 C         143.3135  142.3133  169.3308 C.3     1  UNL1        0.0005
     32 C         142.9113  142.2126  167.8893 C.3     1  UNL1        0.0091
@<TRIPOS>BOND
     1    23    24    2
     2    24    25   am
     3    25     1    1
     4     1     2   ar
     5     2     3   ar
     6     3     4   ar
     7     4     7    1
     8     7     8   ar
     9     8     9   ar
    10     9    10   ar
    11    10    12    1
    12    12    14    1
    13    14    15    1
    14    15    16    1
    15    16    17    1
    16    17    18    1
    17    18    19    1
    18    19    20    1
    19    20    21    1
    20    21    22    1
    21    10    11   ar
    22     4     5   ar
    23     5     6   ar
    24    24    27    1
    25    27    28    1
    26    28    29    1
    27    29    30    1
    28    30    31    1
    29    31    32    1
    30     6     1   ar
    31    32    27    1
    32    11     7   ar
    33    22    17    1
    34    25    26    1
    35    12    13    1
@<TRIPOS>MOLECULE
*****
 32 35 0 0 0
SMALL
GASTEIGER

@<TRIPOS>ATOM
      1 C         140.6819  143.5328  164.5340 C.ar    1  UNL1        0.0503
      2 C         141.2184  144.8963  164.2132 C.ar    1  UNL1        0.0148
      3 C         141.4700  145.2868  162.7870 C.ar    1  UNL1        0.0060
      4 C         141.1851  144.3137  161.6815 C.ar    1  UNL1        0.0553
      5 C         140.6486  142.9502  162.0024 C.ar    1  UNL1        0.0060
      6 C         140.3970  142.5598  163.4286 C.ar    1  UNL1        0.0148
      7 C         141.4367  144.7042  160.2552 C.ar    1  UNL1        0.2512
      8 N         142.5991  144.2678  159.4136 N.ar    1  UNL1       -0.1058
      9 N         142.4510  144.8935  158.0584 N.ar    1  UNL1       -0.0923
     10 C         141.1969  145.7166  158.0625 C.ar    1  UNL1        0.3086
     11 O         140.5701  145.5996  159.4202 O.2     1  UNL1       -0.4048
     12 N         140.6634  146.5163  156.9110 N.pl3   1  UNL1       -0.2871
     13 H         141.0428  147.4020  156.7091 H       1  UNL1        0.1512
     14 C         139.5517  145.9665  156.0673 C.3     1  UNL1        0.0925
     15 C         139.1765  146.6476  154.7846 C.3     1  UNL1        0.0386
     16 C         140.0311  147.7566  154.2463 C.3     1  UNL1        0.0738
     17 N         139.5669  149.1791  154.3502 N.3     1  UNL1       -0.2726
     18 C         139.8151  150.1336  153.2200 C.3     1  UNL1        0.0721
     19 C         139.3509  151.5561  153.3239 C.3     1  UNL1        0.0174
     20 C         138.6386  152.0243  154.5581 C.3     1  UNL1        0.0029
     21 C         138.3904  151.0699  155.6883 C.3     1  UNL1        0.0174
     22 C         138.8546  149.6473  155.5844 C.3     1  UNL1        0.0721
     23 O         142.5970  141.7087  165.9501 O.2     1  UNL1       -0.2748
     24 C         141.3879  142.2303  166.6683 C.2     1  UNL1        0.2256
     25 N         140.4303  143.1423  165.9603 N.am    1  UNL1       -0.2839
     26 H         139.6367  143.4846  166.4318 H       1  UNL1        0.1549
     27 C         141.1362  141.8398  168.0946 C.3     1  UNL1        0.0768
     28 C         140.6976  142.8735  169.0891 C.3     1  UNL1        0.0091
     29 C         140.4460  142.4830  170.5153 C.3     1  UNL1        0.0005
     30 C         140.6331  141.0588  170.9471 C.3     1  UNL1        0.0000
     31 C         141.0717  140.0250  169.9527 C.3     1  UNL1        0.0005
     32 C         141.3233  140.4155  168.5265 C.3     1  UNL1        0.0091
@<TRIPOS>BOND
     1    23    24    2
     2    24    25   am
     3    25     1    1
     4     1     2   ar
     5     2     3   ar
     6     3     4   ar
     7     4     7    1
     8     7     8   ar
     9     8     9   ar
    10     9    10   ar
    11    10    12    1
    12    12    14    1
    13    14    15    1
    14    15    16    1
    15    16    17    1
    16    17    18    1
    17    18    19    1
    18    19    20    1
    19    20    21    1
    20    21    22    1
    21    10    11   ar
    22     4     5   ar
    23     5     6   ar
    24    24    27    1
    25    27    28    1
    26    28    29    1
    27    29    30    1
    28    30    31    1
    29    31    32    1
    30     6     1   ar
    31    32    27    1
    32    11     7   ar
    33    22    17    1
    34    25    26    1
    35    12    13    1
