@<TRIPOS>MOLECULE
*****
 30 34 0 0 0
SMALL
GASTEIGER

@<TRIPOS>ATOM
      1 C         140.2434  145.5560  162.0785 C.3     1  UNL1        0.0294
      2 C         140.2085  145.0122  160.6809 C.3     1  UNL1        0.0666
      3 S         140.0880  143.5344  160.4539 S.3     1  UNL1       -0.0756
      4 C         138.4822  141.0594  162.9760 C.ar    1  UNL1        0.2029
      5 N         137.2736  141.8037  162.4909 N.ar    1  UNL1       -0.1250
      6 N         137.7281  142.8214  161.4870 N.ar    1  UNL1       -0.1220
      7 C         139.2175  142.7062  161.3518 C.ar    1  UNL1        0.1933
      8 N         139.6836  141.6172  162.2720 N.ar    1  UNL1       -0.2860
      9 C         141.1020  141.1652  162.4561 C.3     1  UNL1        0.1341
     10 C         139.1414  137.9197  162.3786 C.3     1  UNL1        0.0556
     11 C         138.7913  138.5087  163.7130 C.ar    1  UNL1        0.1001
     12 N         138.6828  137.7579  165.0070 N.ar    1  UNL1       -0.2085
     13 C         138.3127  138.7370  166.0814 C.ar    1  UNL1        0.2849
     14 O         138.1925  140.0930  165.4513 O.2     1  UNL1       -0.4283
     15 C         138.4883  139.9518  163.9876 C.ar    1  UNL1        0.1964
     16 C         141.4902  145.4274  162.9024 C.3     1  UNL1        0.0730
     17 N         141.5439  144.4431  164.0330 N.3     1  UNL1       -0.2720
     18 C         140.2318  144.1378  164.6929 C.3     1  UNL1        0.0768
     19 C         139.9544  143.2082  165.8370 C.3     1  UNL1        0.0434
     20 C         140.9205  142.3544  166.6038 C.ar    1  UNL1       -0.0230
     21 C         140.2259  141.5696  167.6769 C.ar    1  UNL1        0.0178
     22 C         141.0134  140.6496  168.5621 C.ar    1  UNL1        0.1187
     23 N         140.6065  139.7553  169.6955 N.ar    1  UNL1       -0.2043
     24 C         141.8370  139.0675  170.2080 C.ar    1  UNL1        0.2851
     25 O         143.0045  139.5367  169.3913 O.2     1  UNL1       -0.4312
     26 C         142.4955  140.5146  168.3741 C.ar    1  UNL1        0.1645
     27 C         143.1900  141.2994  167.3010 C.ar    1  UNL1        0.0346
     28 C         142.4024  142.2194  166.4158 C.ar    1  UNL1       -0.0216
     29 C         143.2845  142.9047  165.4146 C.3     1  UNL1        0.0434
     30 C         142.9025  143.8943  164.3542 C.3     1  UNL1        0.0768
@<TRIPOS>BOND
     1    10    11    1
     2    11    12   ar
     3    12    13   ar
     4    13    14   ar
     5    14    15   ar
     6    15     4    1
     7     4     5   ar
     8     5     6   ar
     9     6     7   ar
    10     7     3    1
    11     3     2    1
    12     2     1    1
    13     1    16    1
    14    16    17    1
    15    17    18    1
    16    18    19    1
    17    19    20    1
    18    20    21   ar
    19    21    22   ar
    20    22    23   ar
    21    23    24   ar
    22    24    25   ar
    23    25    26   ar
    24    26    27   ar
    25    27    28   ar
    26    28    29    1
    27    29    30    1
    28     7     8   ar
    29     8     9    1
    30    15    11   ar
    31     8     4   ar
    32    30    17    1
    33    28    20   ar
    34    26    22   ar
@<TRIPOS>MOLECULE
*****
 30 34 0 0 0
SMALL
GASTEIGER

@<TRIPOS>ATOM
      1 C         138.9527  138.4298  161.9411 C.3     1  UNL1        0.0294
      2 C         137.7566  139.3069  161.7173 C.3     1  UNL1        0.0666
      3 S         137.8951  140.7985  161.7955 S.3     1  UNL1       -0.0756
      4 C         140.6348  142.4043  164.0273 C.ar    1  UNL1        0.2029
      5 N         139.4830  142.3365  164.9859 N.ar    1  UNL1       -0.1250
      6 N         138.3166  141.7267  164.2664 N.ar    1  UNL1       -0.1220
      7 C         138.7474  141.4176  162.8633 C.ar    1  UNL1        0.1933
      8 N         140.1801  141.8364  162.7155 N.ar    1  UNL1       -0.2860
      9 C         141.0123  141.7096  161.4739 C.3     1  UNL1        0.1341
     10 C         141.7086  145.4039  163.3210 C.3     1  UNL1        0.0556
     11 C         142.4949  144.3238  164.0031 C.ar    1  UNL1        0.1001
     12 N         143.9127  144.4329  164.4803 N.ar    1  UNL1       -0.2085
     13 C         144.2955  143.1215  165.0999 C.ar    1  UNL1        0.2849
     14 O         143.1141  142.2020  165.0056 O.2     1  UNL1       -0.4283
     15 C         142.0013  142.9450  164.3278 C.ar    1  UNL1        0.1964
     16 C         139.0638  137.6196  163.1986 C.3     1  UNL1        0.0730
     17 N         139.4737  138.2790  164.4820 N.3     1  UNL1       -0.2720
     18 C         140.9306  138.6149  164.6046 C.3     1  UNL1        0.0768
     19 C         141.6461  139.2701  165.7486 C.3     1  UNL1        0.0434
     20 C         141.0816  139.7512  167.0525 C.ar    1  UNL1       -0.0230
     21 C         142.1464  140.3499  167.9230 C.ar    1  UNL1        0.0178
     22 C         141.7918  140.8934  169.2753 C.ar    1  UNL1        0.1187
     23 N         142.6203  141.5376  170.3470 N.ar    1  UNL1       -0.2043
     24 C         141.7130  141.8805  171.4911 C.ar    1  UNL1        0.2851
     25 O         140.3236  141.4482  171.1266 O.2     1  UNL1       -0.4312
     26 C         140.3723  140.8381  169.7572 C.ar    1  UNL1        0.1645
     27 C         139.3076  140.2394  168.8866 C.ar    1  UNL1        0.0346
     28 C         139.6622  139.6959  167.5343 C.ar    1  UNL1       -0.0216
     29 C         138.4567  139.1459  166.8313 C.3     1  UNL1        0.0434
     30 C         138.3728  138.5153  165.4729 C.3     1  UNL1        0.0768
@<TRIPOS>BOND
     1    10    11    1
     2    11    12   ar
     3    12    13   ar
     4    13    14   ar
     5    14    15   ar
     6    15     4    1
     7     4     5   ar
     8     5     6   ar
     9     6     7   ar
    10     7     3    1
    11     3     2    1
    12     2     1    1
    13     1    16    1
    14    16    17    1
    15    17    18    1
    16    18    19    1
    17    19    20    1
    18    20    21   ar
    19    21    22   ar
    20    22    23   ar
    21    23    24   ar
    22    24    25   ar
    23    25    26   ar
    24    26    27   ar
    25    27    28   ar
    26    28    29    1
    27    29    30    1
    28     7     8   ar
    29     8     9    1
    30    15    11   ar
    31     8     4   ar
    32    30    17    1
    33    28    20   ar
    34    26    22   ar
@<TRIPOS>MOLECULE
*****
 30 34 0 0 0
SMALL
GASTEIGER

@<TRIPOS>ATOM
      1 C         138.9960  137.9962  162.4219 C.3     1  UNL1        0.0294
      2 C         137.8674  138.2874  161.4777 C.3     1  UNL1        0.0666
      3 S         137.6208  139.6925  161.0142 S.3     1  UNL1       -0.0756
      4 C         139.3432  142.6019  162.9206 C.ar    1  UNL1        0.2029
      5 N         137.9591  142.6576  163.4962 N.ar    1  UNL1       -0.1250
      6 N         137.1455  141.5744  162.8521 N.ar    1  UNL1       -0.1220
      7 C         138.0267  140.8494  161.8785 C.ar    1  UNL1        0.1933
      8 N         139.3849  141.4845  161.9208 N.ar    1  UNL1       -0.2860
      9 C         140.5759  141.0742  161.1063 C.3     1  UNL1        0.1341
     10 C         139.5927  145.7694  162.1756 C.3     1  UNL1        0.0556
     11 C         140.5998  144.9612  162.9390 C.ar    1  UNL1        0.1001
     12 N         141.8983  145.4669  163.4939 N.ar    1  UNL1       -0.2085
     13 C         142.5862  144.3237  164.1793 C.ar    1  UNL1        0.2849
     14 O         141.7127  143.1113  164.0479 O.2     1  UNL1       -0.4283
     15 C         140.4851  143.5053  163.2814 C.ar    1  UNL1        0.1964
     16 C         138.7140  137.7488  163.8742 C.3     1  UNL1        0.0730
     17 N         139.3808  138.5903  164.9217 N.3     1  UNL1       -0.2720
     18 C         138.5811  138.8337  166.1672 C.3     1  UNL1        0.0768
     19 C         138.9623  139.6241  167.3838 C.3     1  UNL1        0.0434
     20 C         140.2373  140.3662  167.6553 C.ar    1  UNL1       -0.0230
     21 C         140.2104  141.0275  169.0015 C.ar    1  UNL1        0.0178
     22 C         141.3923  141.8237  169.4696 C.ar    1  UNL1        0.1187
     23 N         141.6529  142.5823  170.7372 N.ar    1  UNL1       -0.2043
     24 C         143.0228  143.1862  170.6425 C.ar    1  UNL1        0.2851
     25 O         143.6087  142.8008  169.3165 O.2     1  UNL1       -0.4312
     26 C         142.6010  141.9588  168.5916 C.ar    1  UNL1        0.1645
     27 C         142.6278  141.2975  167.2455 C.ar    1  UNL1        0.0346
     28 C         141.4459  140.5013  166.7774 C.ar    1  UNL1       -0.0216
     29 C         141.6782  139.9275  165.4110 C.3     1  UNL1        0.0434
     30 C         140.7592  139.0771  164.5852 C.3     1  UNL1        0.0768
@<TRIPOS>BOND
     1    10    11    1
     2    11    12   ar
     3    12    13   ar
     4    13    14   ar
     5    14    15   ar
     6    15     4    1
     7     4     5   ar
     8     5     6   ar
     9     6     7   ar
    10     7     3    1
    11     3     2    1
    12     2     1    1
    13     1    16    1
    14    16    17    1
    15    17    18    1
    16    18    19    1
    17    19    20    1
    18    20    21   ar
    19    21    22   ar
    20    22    23   ar
    21    23    24   ar
    22    24    25   ar
    23    25    26   ar
    24    26    27   ar
    25    27    28   ar
    26    28    29    1
    27    29    30    1
    28     7     8   ar
    29     8     9    1
    30    15    11   ar
    31     8     4   ar
    32    30    17    1
    33    28    20   ar
    34    26    22   ar
@<TRIPOS>MOLECULE
*****
 30 34 0 0 0
SMALL
GASTEIGER

@<TRIPOS>ATOM
      1 C         141.0300  139.8486  170.3908 C.3     1  UNL1        0.0294
      2 C         139.9394  140.6158  169.7038 C.3     1  UNL1        0.0666
      3 S         139.0458  139.9269  168.7155 S.3     1  UNL1       -0.0756
      4 C         139.1890  139.8468  164.8376 C.ar    1  UNL1        0.2029
      5 N         139.8955  141.1379  165.1271 N.ar    1  UNL1       -0.1250
      6 N         139.9278  141.3250  166.6150 N.ar    1  UNL1       -0.1220
      7 C         139.2413  140.1496  167.2451 C.ar    1  UNL1        0.1933
      8 N         138.7847  139.2360  166.1466 N.ar    1  UNL1       -0.2860
      9 C         138.0523  137.9392  166.3256 C.3     1  UNL1        0.1341
     10 C         140.8344  137.3904  163.4561 C.3     1  UNL1        0.0556
     11 C         139.6882  138.1389  162.8428 C.ar    1  UNL1        0.1001
     12 N         139.0971  137.8898  161.4869 N.ar    1  UNL1       -0.2085
     13 C         137.9755  138.8649  161.2839 C.ar    1  UNL1        0.2849
     14 O         137.8734  139.7167  162.5144 O.2     1  UNL1       -0.4283
     15 C         138.9319  139.2680  163.4778 C.ar    1  UNL1        0.1964
     16 C         142.4593  140.0476  169.9817 C.3     1  UNL1        0.0730
     17 N         142.7884  140.4372  168.5710 N.3     1  UNL1       -0.2720
     18 C         142.8111  139.3161  167.5747 C.3     1  UNL1        0.0768
     19 C         143.1022  139.3773  166.1045 C.3     1  UNL1        0.0434
     20 C         143.4426  140.5747  165.2675 C.ar    1  UNL1       -0.0230
     21 C         143.6609  140.1960  163.8325 C.ar    1  UNL1        0.0178
     22 C         144.0125  141.2493  162.8241 C.ar    1  UNL1        0.1187
     23 N         144.2842  141.1773  161.3507 N.ar    1  UNL1       -0.2043
     24 C         144.5854  142.5647  160.8666 C.ar    1  UNL1        0.2851
     25 O         144.4998  143.4942  162.0408 O.2     1  UNL1       -0.4312
     26 C         144.1457  142.6812  163.2507 C.ar    1  UNL1        0.1645
     27 C         143.9274  143.0598  164.6856 C.ar    1  UNL1        0.0346
     28 C         143.5758  142.0065  165.6940 C.ar    1  UNL1       -0.0216
     29 C         143.4016  142.5947  167.0629 C.3     1  UNL1        0.0434
     30 C         143.0512  141.8964  168.3432 C.3     1  UNL1        0.0768
@<TRIPOS>BOND
     1    10    11    1
     2    11    12   ar
     3    12    13   ar
     4    13    14   ar
     5    14    15   ar
     6    15     4    1
     7     4     5   ar
     8     5     6   ar
     9     6     7   ar
    10     7     3    1
    11     3     2    1
    12     2     1    1
    13     1    16    1
    14    16    17    1
    15    17    18    1
    16    18    19    1
    17    19    20    1
    18    20    21   ar
    19    21    22   ar
    20    22    23   ar
    21    23    24   ar
    22    24    25   ar
    23    25    26   ar
    24    26    27   ar
    25    27    28   ar
    26    28    29    1
    27    29    30    1
    28     7     8   ar
    29     8     9    1
    30    15    11   ar
    31     8     4   ar
    32    30    17    1
    33    28    20   ar
    34    26    22   ar
@<TRIPOS>MOLECULE
*****
 30 34 0 0 0
SMALL
GASTEIGER

@<TRIPOS>ATOM
      1 C         137.8845  138.6723  161.7318 C.3     1  UNL1        0.0294
      2 C         138.1729  139.8403  160.8359 C.3     1  UNL1        0.0666
      3 S         138.2754  141.2209  161.4130 S.3     1  UNL1       -0.0756
      4 C         141.5982  141.8325  163.3236 C.ar    1  UNL1        0.2029
      5 N         140.5933  142.3099  164.3298 N.ar    1  UNL1       -0.1250
      6 N         139.2263  142.1389  163.7364 N.ar    1  UNL1       -0.1220
      7 C         139.3862  141.5559  162.3637 C.ar    1  UNL1        0.1933
      8 N         140.8522  141.3665  162.1085 N.ar    1  UNL1       -0.2860
      9 C         141.4648  140.8091  160.8579 C.3     1  UNL1        0.1341
     10 C         143.4867  144.4458  163.8278 C.3     1  UNL1        0.0556
     11 C         143.9557  143.0241  163.7330 C.ar    1  UNL1        0.1001
     12 N         145.3750  142.5540  163.8534 N.ar    1  UNL1       -0.2085
     13 C         145.3841  141.0623  163.6961 C.ar    1  UNL1        0.2849
     14 O         143.9705  140.6105  163.4785 O.2     1  UNL1       -0.4283
     15 C         143.0877  141.8229  163.5013 C.ar    1  UNL1        0.1964
     16 C         139.0130  137.9358  162.3906 C.3     1  UNL1        0.0730
     17 N         139.5188  138.3819  163.7305 N.3     1  UNL1       -0.2720
     18 C         141.0001  138.2680  163.9377 C.3     1  UNL1        0.0768
     19 C         141.8049  138.6270  165.1516 C.3     1  UNL1        0.0434
     20 C         141.3272  139.1886  166.4579 C.ar    1  UNL1       -0.0230
     21 C         142.4656  139.4043  167.4107 C.ar    1  UNL1        0.0178
     22 C         142.2035  139.9613  168.7785 C.ar    1  UNL1        0.1187
     23 N         143.1174  140.2801  169.9244 N.ar    1  UNL1       -0.2043
     24 C         142.2818  140.8185  171.0477 C.ar    1  UNL1        0.2851
     25 O         140.8514  140.8324  170.5961 O.2     1  UNL1       -0.4312
     26 C         140.8031  140.3026  169.1936 C.ar    1  UNL1        0.1645
     27 C         139.6648  140.0869  168.2409 C.ar    1  UNL1        0.0346
     28 C         139.9269  139.5299  166.8730 C.ar    1  UNL1       -0.0216
     29 C         138.6582  139.3939  166.0843 C.3     1  UNL1        0.0434
     30 C         138.4766  138.8830  164.6858 C.3     1  UNL1        0.0768
@<TRIPOS>BOND
     1    10    11    1
     2    11    12   ar
     3    12    13   ar
     4    13    14   ar
     5    14    15   ar
     6    15     4    1
     7     4     5   ar
     8     5     6   ar
     9     6     7   ar
    10     7     3    1
    11     3     2    1
    12     2     1    1
    13     1    16    1
    14    16    17    1
    15    17    18    1
    16    18    19    1
    17    19    20    1
    18    20    21   ar
    19    21    22   ar
    20    22    23   ar
    21    23    24   ar
    22    24    25   ar
    23    25    26   ar
    24    26    27   ar
    25    27    28   ar
    26    28    29    1
    27    29    30    1
    28     7     8   ar
    29     8     9    1
    30    15    11   ar
    31     8     4   ar
    32    30    17    1
    33    28    20   ar
    34    26    22   ar
@<TRIPOS>MOLECULE
*****
 30 34 0 0 0
SMALL
GASTEIGER

@<TRIPOS>ATOM
      1 C         138.2865  142.7979  161.1580 C.3     1  UNL1        0.0294
      2 C         139.0108  142.4986  159.8789 C.3     1  UNL1        0.0666
      3 S         140.5100  142.5281  159.8414 S.3     1  UNL1       -0.0756
      4 C         142.3417  141.2456  163.0140 C.ar    1  UNL1        0.2029
      5 N         142.6703  142.7085  163.0611 N.ar    1  UNL1       -0.1250
      6 N         142.0241  143.3669  161.8784 N.ar    1  UNL1       -0.1220
      7 C         141.2962  142.3111  161.1003 C.ar    1  UNL1        0.1933
      8 N         141.4925  141.0000  161.8022 N.ar    1  UNL1       -0.2860
      9 C         140.9372  139.6758  161.3685 C.3     1  UNL1        0.1341
     10 C         145.4193  140.6544  163.9243 C.3     1  UNL1        0.0556
     11 C         144.1993  139.9384  164.4232 C.ar    1  UNL1        0.1001
     12 N         144.1797  138.8250  165.4281 N.ar    1  UNL1       -0.2085
     13 C         142.7530  138.4086  165.6308 C.ar    1  UNL1        0.2849
     14 O         141.8909  139.2647  164.7511 O.2     1  UNL1       -0.4283
     15 C         142.7847  140.2101  164.0048 C.ar    1  UNL1        0.1964
     16 C         137.8068  141.6747  162.0287 C.3     1  UNL1        0.0730
     17 N         138.3365  141.5290  163.4245 N.3     1  UNL1       -0.2720
     18 C         138.0343  140.2254  164.1025 C.3     1  UNL1        0.0768
     19 C         138.4193  139.7770  165.4811 C.3     1  UNL1        0.0434
     20 C         139.2017  140.5213  166.5223 C.ar    1  UNL1       -0.0230
     21 C         139.3652  139.7067  167.7713 C.ar    1  UNL1        0.0178
     22 C         140.1192  140.2687  168.9398 C.ar    1  UNL1        0.1187
     23 N         140.4405  139.7047  170.2921 N.ar    1  UNL1       -0.2043
     24 C         141.2296  140.7326  171.0475 C.ar    1  UNL1        0.2851
     25 O         141.3960  141.9320  170.1621 O.2     1  UNL1       -0.4312
     26 C         140.7097  141.6453  168.8595 C.ar    1  UNL1        0.1645
     27 C         140.5463  142.4598  167.6105 C.ar    1  UNL1        0.0346
     28 C         139.7922  141.8978  166.4420 C.ar    1  UNL1       -0.0216
     29 C         139.7463  142.8700  165.3006 C.3     1  UNL1        0.0434
     30 C         139.0985  142.7059  163.9577 C.3     1  UNL1        0.0768
@<TRIPOS>BOND
     1    10    11    1
     2    11    12   ar
     3    12    13   ar
     4    13    14   ar
     5    14    15   ar
     6    15     4    1
     7     4     5   ar
     8     5     6   ar
     9     6     7   ar
    10     7     3    1
    11     3     2    1
    12     2     1    1
    13     1    16    1
    14    16    17    1
    15    17    18    1
    16    18    19    1
    17    19    20    1
    18    20    21   ar
    19    21    22   ar
    20    22    23   ar
    21    23    24   ar
    22    24    25   ar
    23    25    26   ar
    24    26    27   ar
    25    27    28   ar
    26    28    29    1
    27    29    30    1
    28     7     8   ar
    29     8     9    1
    30    15    11   ar
    31     8     4   ar
    32    30    17    1
    33    28    20   ar
    34    26    22   ar
@<TRIPOS>MOLECULE
*****
 30 34 0 0 0
SMALL
GASTEIGER

@<TRIPOS>ATOM
      1 C         137.4389  140.0419  161.3480 C.3     1  UNL1        0.0294
      2 C         138.4781  139.5599  160.3796 C.3     1  UNL1        0.0666
      3 S         139.2810  138.3317  160.6908 S.3     1  UNL1       -0.0756
      4 C         142.5055  139.3079  162.6183 C.ar    1  UNL1        0.2029
      5 N         142.3186  137.8886  163.0663 N.ar    1  UNL1       -0.1250
      6 N         141.0879  137.3502  162.3987 N.ar    1  UNL1       -0.1220
      7 C         140.5143  138.4367  161.5382 C.ar    1  UNL1        0.1933
      8 N         141.3905  139.6466  161.6739 N.ar    1  UNL1       -0.2860
      9 C         141.1873  140.9640  160.9860 C.3     1  UNL1        0.1341
     10 C         142.9969  140.4621  165.6309 C.3     1  UNL1        0.0556
     11 C         143.8391  140.7576  164.4253 C.ar    1  UNL1        0.1001
     12 N         145.0548  141.6355  164.3928 N.ar    1  UNL1       -0.2085
     13 C         145.5804  141.6475  162.9879 C.ar    1  UNL1        0.2849
     14 O         144.6894  140.7770  162.1522 O.2     1  UNL1       -0.4283
     15 C         143.6132  140.2271  163.0405 C.ar    1  UNL1        0.1964
     16 C         137.6566  141.3159  162.1092 C.3     1  UNL1        0.0730
     17 N         138.2481  141.2746  163.4871 N.3     1  UNL1       -0.2720
     18 C         138.0713  139.9851  164.2328 C.3     1  UNL1        0.0768
     19 C         138.5409  139.6308  165.6126 C.3     1  UNL1        0.0434
     20 C         139.3032  140.4784  166.5875 C.ar    1  UNL1       -0.0230
     21 C         139.5749  139.7369  167.8629 C.ar    1  UNL1        0.0178
     22 C         140.3277  140.4068  168.9740 C.ar    1  UNL1        0.1187
     23 N         140.7415  139.9313  170.3352 N.ar    1  UNL1       -0.2043
     24 C         141.4783  141.0488  171.0122 C.ar    1  UNL1        0.2851
     25 O         141.5199  142.2148  170.0696 O.2     1  UNL1       -0.4312
     26 C         140.8087  141.8180  168.8099 C.ar    1  UNL1        0.1645
     27 C         140.5370  142.5595  167.5345 C.ar    1  UNL1        0.0346
     28 C         139.7843  141.8896  166.4234 C.ar    1  UNL1       -0.0216
     29 C         139.6218  142.8019  165.2437 C.3     1  UNL1        0.0434
     30 C         138.9381  142.5282  163.9370 C.3     1  UNL1        0.0768
@<TRIPOS>BOND
     1    10    11    1
     2    11    12   ar
     3    12    13   ar
     4    13    14   ar
     5    14    15   ar
     6    15     4    1
     7     4     5   ar
     8     5     6   ar
     9     6     7   ar
    10     7     3    1
    11     3     2    1
    12     2     1    1
    13     1    16    1
    14    16    17    1
    15    17    18    1
    16    18    19    1
    17    19    20    1
    18    20    21   ar
    19    21    22   ar
    20    22    23   ar
    21    23    24   ar
    22    24    25   ar
    23    25    26   ar
    24    26    27   ar
    25    27    28   ar
    26    28    29    1
    27    29    30    1
    28     7     8   ar
    29     8     9    1
    30    15    11   ar
    31     8     4   ar
    32    30    17    1
    33    28    20   ar
    34    26    22   ar
@<TRIPOS>MOLECULE
*****
 30 34 0 0 0
SMALL
GASTEIGER

@<TRIPOS>ATOM
      1 C         137.5278  139.8617  161.3659 C.3     1  UNL1        0.0294
      2 C         138.5029  139.2923  160.3785 C.3     1  UNL1        0.0666
      3 S         139.5930  138.3738  160.8453 S.3     1  UNL1       -0.0756
      4 C         142.1889  140.0869  163.1674 C.ar    1  UNL1        0.2029
      5 N         141.7849  138.9089  164.0037 N.ar    1  UNL1       -0.1250
      6 N         140.7633  138.1239  163.2355 N.ar    1  UNL1       -0.1220
      7 C         140.5359  138.8165  161.9246 C.ar    1  UNL1        0.1933
      8 N         141.4170  140.0298  161.8825 N.ar    1  UNL1       -0.2860
      9 C         141.5099  141.0133  160.7537 C.3     1  UNL1        0.1341
     10 C         145.1887  139.5460  164.3328 C.3     1  UNL1        0.0556
     11 C         144.5681  140.8889  164.0847 C.ar    1  UNL1        0.1001
     12 N         145.2173  142.2188  164.3288 N.ar    1  UNL1       -0.2085
     13 C         144.2397  143.2894  163.9439 C.ar    1  UNL1        0.2849
     14 O         142.9863  142.6211  163.4620 O.2     1  UNL1       -0.4283
     15 C         143.1892  141.1375  163.5490 C.ar    1  UNL1        0.1964
     16 C         137.8285  141.1606  162.0532 C.3     1  UNL1        0.0730
     17 N         138.3948  141.1606  163.4422 N.3     1  UNL1       -0.2720
     18 C         139.2709  142.3282  163.7877 C.3     1  UNL1        0.0768
     19 C         139.9787  142.6166  165.0784 C.3     1  UNL1        0.0434
     20 C         139.9852  141.8087  166.3423 C.ar    1  UNL1       -0.0230
     21 C         140.8256  142.4568  167.4026 C.ar    1  UNL1        0.0178
     22 C         140.9662  141.8089  168.7481 C.ar    1  UNL1        0.1187
     23 N         141.7210  142.2095  169.9809 N.ar    1  UNL1       -0.2043
     24 C         141.4878  141.1612  171.0282 C.ar    1  UNL1        0.2851
     25 O         140.5889  140.1128  170.4426 O.2     1  UNL1       -0.4312
     26 C         140.2665  140.5131  169.0334 C.ar    1  UNL1        0.1645
     27 C         139.4263  139.8652  167.9732 C.ar    1  UNL1        0.0346
     28 C         139.2856  140.5130  166.6277 C.ar    1  UNL1       -0.0216
     29 C         138.4066  139.7050  165.7196 C.3     1  UNL1        0.0434
     30 C         138.0102  139.9932  164.3020 C.3     1  UNL1        0.0768
@<TRIPOS>BOND
     1    10    11    1
     2    11    12   ar
     3    12    13   ar
     4    13    14   ar
     5    14    15   ar
     6    15     4    1
     7     4     5   ar
     8     5     6   ar
     9     6     7   ar
    10     7     3    1
    11     3     2    1
    12     2     1    1
    13     1    16    1
    14    16    17    1
    15    17    18    1
    16    18    19    1
    17    19    20    1
    18    20    21   ar
    19    21    22   ar
    20    22    23   ar
    21    23    24   ar
    22    24    25   ar
    23    25    26   ar
    24    26    27   ar
    25    27    28   ar
    26    28    29    1
    27    29    30    1
    28     7     8   ar
    29     8     9    1
    30    15    11   ar
    31     8     4   ar
    32    30    17    1
    33    28    20   ar
    34    26    22   ar
@<TRIPOS>MOLECULE
*****
 30 34 0 0 0
SMALL
GASTEIGER

@<TRIPOS>ATOM
      1 C         138.1081  141.8214  161.3869 C.3     1  UNL1        0.0294
      2 C         138.1001  140.7845  160.3030 C.3     1  UNL1        0.0666
      3 S         139.3391  139.9889  160.0171 S.3     1  UNL1       -0.0756
      4 C         141.3524  138.5777  163.0205 C.ar    1  UNL1        0.2029
      5 N         140.6176  137.3526  162.5629 N.ar    1  UNL1       -0.1250
      6 N         139.7740  137.7322  161.3821 N.ar    1  UNL1       -0.1220
      7 C         139.9874  139.1917  161.1100 C.ar    1  UNL1        0.1933
      8 N         140.9629  139.7143  162.1226 N.ar    1  UNL1       -0.2860
      9 C         141.4614  141.1257  162.2202 C.3     1  UNL1        0.1341
     10 C         144.4984  139.4283  162.8510 C.3     1  UNL1        0.0556
     11 C         143.7548  139.0439  164.0958 C.ar    1  UNL1        0.1001
     12 N         144.3268  138.9829  165.4811 N.ar    1  UNL1       -0.2085
     13 C         143.2342  138.5543  166.4152 C.ar    1  UNL1        0.2849
     14 O         141.9871  138.3503  165.6071 O.2     1  UNL1       -0.4283
     15 C         142.3088  138.6529  164.1737 C.ar    1  UNL1        0.1964
     16 C         137.3668  141.5738  162.6672 C.3     1  UNL1        0.0730
     17 N         138.1183  141.4715  163.9613 N.3     1  UNL1       -0.2720
     18 C         138.0609  140.1368  164.6435 C.3     1  UNL1        0.0768
     19 C         138.6989  139.7184  165.9350 C.3     1  UNL1        0.0434
     20 C         139.5519  140.5314  166.8632 C.ar    1  UNL1       -0.0230
     21 C         139.9899  139.7266  168.0510 C.ar    1  UNL1        0.0178
     22 C         140.8536  140.3541  169.1047 C.ar    1  UNL1        0.1187
     23 N         141.4368  139.8142  170.3769 N.ar    1  UNL1       -0.2043
     24 C         142.2228  140.9127  171.0291 C.ar    1  UNL1        0.2851
     25 O         142.1254  142.1315  170.1601 O.2     1  UNL1       -0.4312
     26 C         141.2792  141.7862  168.9707 C.ar    1  UNL1        0.1645
     27 C         140.8411  142.5909  167.7830 C.ar    1  UNL1        0.0346
     28 C         139.9775  141.9634  166.7293 C.ar    1  UNL1       -0.0216
     29 C         139.6552  142.9363  165.6339 C.3     1  UNL1        0.0434
     30 C         138.8279  142.7174  164.4021 C.3     1  UNL1        0.0768
@<TRIPOS>BOND
     1    10    11    1
     2    11    12   ar
     3    12    13   ar
     4    13    14   ar
     5    14    15   ar
     6    15     4    1
     7     4     5   ar
     8     5     6   ar
     9     6     7   ar
    10     7     3    1
    11     3     2    1
    12     2     1    1
    13     1    16    1
    14    16    17    1
    15    17    18    1
    16    18    19    1
    17    19    20    1
    18    20    21   ar
    19    21    22   ar
    20    22    23   ar
    21    23    24   ar
    22    24    25   ar
    23    25    26   ar
    24    26    27   ar
    25    27    28   ar
    26    28    29    1
    27    29    30    1
    28     7     8   ar
    29     8     9    1
    30    15    11   ar
    31     8     4   ar
    32    30    17    1
    33    28    20   ar
    34    26    22   ar
