@<TRIPOS>MOLECULE
*****
 28 31 0 0 0
SMALL
GASTEIGER

@<TRIPOS>ATOM
      1 C         140.8173  142.0624  167.1424 C.3     1  UNL1        0.1686
      2 C         142.1765  141.4301  167.1920 C.3     1  UNL1        0.0595
      3 C         143.0815  141.6882  168.3601 C.3     1  UNL1        0.0614
      4 C         143.6187  142.2053  169.6616 C.3     1  UNL1        0.0175
      5 C         142.5716  143.0845  170.2786 C.3     1  UNL1        0.0175
      6 C         141.3873  143.1107  169.3584 C.3     1  UNL1        0.0614
      7 C         140.3629  142.9529  168.2608 C.3     1  UNL1        0.0595
      8 N         141.7025  142.2478  168.1727 N.3     1  UNL1       -0.2713
      9 O         139.9122  141.8044  165.9743 O.3     1  UNL1       -0.4791
     10 C         137.2123  137.5655  167.2945 C.3     1  UNL1        0.0311
     11 C         138.1079  138.2878  166.3320 C.ar    1  UNL1       -0.0187
     12 C         138.5623  139.6849  166.6344 C.ar    1  UNL1        0.0326
     13 C         139.4578  140.4072  165.6719 C.ar    1  UNL1        0.1382
     14 C         139.8990  139.7323  164.4071 C.ar    1  UNL1        0.0414
     15 C         139.4446  138.3351  164.1047 C.ar    1  UNL1        0.0558
     16 C         138.5491  137.6129  165.0672 C.ar    1  UNL1        0.0004
     17 C         139.8857  137.6601  162.8399 C.2     1  UNL1        0.2428
     18 N         139.0136  137.7086  161.6204 N.am    1  UNL1       -0.3253
     19 O         141.1990  136.9367  162.7945 O.2     1  UNL1       -0.2704
     20 H         138.1517  138.1834  161.6502 H       1  UNL1        0.1453
     21 H         139.3032  137.2656  160.7902 H       1  UNL1        0.1453
     22 C         140.7975  141.9897  167.0046 C.3     1  UNL1        0.0991
     23 C         140.6477  143.0243  165.9289 C.ar    1  UNL1       -0.0061
     24 C         141.7749  143.2812  164.9732 C.ar    1  UNL1       -0.0029
     25 C         141.6251  144.3158  163.8976 C.ar    1  UNL1       -0.0003
     26 C         140.3481  145.0935  163.7775 C.ar    1  UNL1       -0.0000
     27 C         139.2208  144.8365  164.7333 C.ar    1  UNL1       -0.0003
     28 C         139.3707  143.8019  165.8089 C.ar    1  UNL1       -0.0029
@<TRIPOS>BOND
     1    10    11    1
     2    11    12   ar
     3    12    13   ar
     4    13     9    1
     5     1     9    1
     6     1     2    1
     7     3     2    1
     8     3     4    1
     9     4     5    1
    10     6     5    1
    11     6     7    1
    12     6     8    1
    13     8    22    1
    14    22    23    1
    15    23    24   ar
    16    24    25   ar
    17    25    26   ar
    18    26    27   ar
    19    27    28   ar
    20    13    14   ar
    21    14    15   ar
    22    15    17    1
    23    17    18   am
    24    17    19    2
    25    15    16   ar
    26    16    11   ar
    27     7     1    1
    28    28    23   ar
    29     8     3    1
    30    18    20    1
    31    18    21    1
@<TRIPOS>MOLECULE
*****
 28 31 0 0 0
SMALL
GASTEIGER

@<TRIPOS>ATOM
      1 C         140.9497  142.4754  165.7394 C.3     1  UNL1        0.1686
      2 C         139.7785  143.3035  165.3006 C.3     1  UNL1        0.0595
      3 C         139.9815  144.4445  164.3482 C.3     1  UNL1        0.0614
      4 C         140.6286  145.4376  163.4291 C.3     1  UNL1        0.0175
      5 C         142.0982  145.1402  163.3859 C.3     1  UNL1        0.0175
      6 C         142.3593  143.9631  164.2783 C.3     1  UNL1        0.0614
      7 C         142.3239  142.7883  165.2257 C.3     1  UNL1        0.0595
      8 N         141.0511  143.5332  164.8731 N.3     1  UNL1       -0.2713
      9 O         140.7468  141.3344  166.6918 O.3     1  UNL1       -0.4791
     10 C         137.0329  137.8116  167.5847 C.3     1  UNL1        0.0311
     11 C         138.1158  138.3634  166.7053 C.ar    1  UNL1       -0.0187
     12 C         138.8899  139.5730  167.1382 C.ar    1  UNL1        0.0326
     13 C         139.9726  140.1248  166.2589 C.ar    1  UNL1        0.1382
     14 C         140.2813  139.4669  164.9467 C.ar    1  UNL1        0.0414
     15 C         139.5071  138.2572  164.5138 C.ar    1  UNL1        0.0558
     16 C         138.4243  137.7055  165.3931 C.ar    1  UNL1        0.0004
     17 C         139.8157  137.5993  163.2016 C.2     1  UNL1        0.2428
     18 N         138.8159  137.6486  162.0844 N.am    1  UNL1       -0.3253
     19 O         141.1241  136.8920  163.0066 O.2     1  UNL1       -0.2704
     20 H         137.9572  138.1128  162.2124 H       1  UNL1        0.1453
     21 H         139.0185  137.2168  161.2232 H       1  UNL1        0.1453
     22 C         140.8481  142.3922  165.8255 C.3     1  UNL1        0.0991
     23 C         141.3207  142.5066  167.2445 C.ar    1  UNL1       -0.0061
     24 C         142.6886  142.0199  167.6210 C.ar    1  UNL1       -0.0029
     25 C         143.1611  142.1343  169.0400 C.ar    1  UNL1       -0.0003
     26 C         142.2657  142.7355  170.0825 C.ar    1  UNL1       -0.0000
     27 C         140.8976  143.2222  169.7060 C.ar    1  UNL1       -0.0003
     28 C         140.4252  143.1077  168.2869 C.ar    1  UNL1       -0.0029
@<TRIPOS>BOND
     1    10    11    1
     2    11    12   ar
     3    12    13   ar
     4    13     9    1
     5     1     9    1
     6     1     2    1
     7     3     2    1
     8     3     4    1
     9     4     5    1
    10     6     5    1
    11     6     7    1
    12     6     8    1
    13     8    22    1
    14    22    23    1
    15    23    24   ar
    16    24    25   ar
    17    25    26   ar
    18    26    27   ar
    19    27    28   ar
    20    13    14   ar
    21    14    15   ar
    22    15    17    1
    23    17    18   am
    24    17    19    2
    25    15    16   ar
    26    16    11   ar
    27     7     1    1
    28    28    23   ar
    29     8     3    1
    30    18    20    1
    31    18    21    1
@<TRIPOS>MOLECULE
*****
 28 31 0 0 0
SMALL
GASTEIGER

@<TRIPOS>ATOM
      1 C         140.4159  141.6262  166.4219 C.3     1  UNL1        0.1686
      2 C         139.8237  140.3135  166.8416 C.3     1  UNL1        0.0595
      3 C         139.5008  140.0638  168.2850 C.3     1  UNL1        0.0614
      4 C         139.3475  140.2500  169.7655 C.3     1  UNL1        0.0175
      5 C         139.8450  141.6215  170.1141 C.3     1  UNL1        0.0175
      6 C         140.3058  142.2829  168.8491 C.3     1  UNL1        0.0614
      7 C         140.6854  142.6890  167.4455 C.3     1  UNL1        0.0595
      8 N         140.0931  141.3201  167.7186 N.3     1  UNL1       -0.2713
      9 O         140.7388  141.8760  164.9784 O.3     1  UNL1       -0.4791
     10 C         145.8142  141.5152  163.9246 C.3     1  UNL1        0.0311
     11 C         144.4204  140.9739  163.8031 C.ar    1  UNL1       -0.0187
     12 C         143.2764  141.6955  164.4515 C.ar    1  UNL1        0.0326
     13 C         141.8828  141.1543  164.3300 C.ar    1  UNL1        0.1382
     14 C         141.6331  139.8915  163.5601 C.ar    1  UNL1        0.0414
     15 C         142.7771  139.1699  162.9116 C.ar    1  UNL1        0.0558
     16 C         144.1708  139.7111  163.0332 C.ar    1  UNL1        0.0004
     17 C         142.5275  137.9070  162.1417 C.2     1  UNL1        0.2428
     18 N         143.5971  137.3478  161.2510 N.am    1  UNL1       -0.3253
     19 O         141.2083  137.2032  162.2625 O.2     1  UNL1       -0.2704
     20 H         144.4629  137.8096  161.1717 H       1  UNL1        0.1453
     21 H         143.4332  136.5189  160.7456 H       1  UNL1        0.1453
     22 C         140.4159  141.5699  166.2752 C.3     1  UNL1        0.0991
     23 C         139.5215  142.4441  165.4470 C.ar    1  UNL1       -0.0061
     24 C         138.3584  141.8457  164.7130 C.ar    1  UNL1       -0.0029
     25 C         137.4641  142.7198  163.8848 C.ar    1  UNL1       -0.0003
     26 C         137.7329  144.1925  163.7907 C.ar    1  UNL1       -0.0000
     27 C         138.8961  144.7911  164.5248 C.ar    1  UNL1       -0.0003
     28 C         139.7904  143.9168  165.3530 C.ar    1  UNL1       -0.0029
@<TRIPOS>BOND
     1    10    11    1
     2    11    12   ar
     3    12    13   ar
     4    13     9    1
     5     1     9    1
     6     1     2    1
     7     3     2    1
     8     3     4    1
     9     4     5    1
    10     6     5    1
    11     6     7    1
    12     6     8    1
    13     8    22    1
    14    22    23    1
    15    23    24   ar
    16    24    25   ar
    17    25    26   ar
    18    26    27   ar
    19    27    28   ar
    20    13    14   ar
    21    14    15   ar
    22    15    17    1
    23    17    18   am
    24    17    19    2
    25    15    16   ar
    26    16    11   ar
    27     7     1    1
    28    28    23   ar
    29     8     3    1
    30    18    20    1
    31    18    21    1
@<TRIPOS>MOLECULE
*****
 28 31 0 0 0
SMALL
GASTEIGER

@<TRIPOS>ATOM
      1 C         141.0806  140.9906  167.2240 C.3     1  UNL1        0.1686
      2 C         140.4376  141.7684  168.3337 C.3     1  UNL1        0.0595
      3 C         140.9606  141.6486  169.7345 C.3     1  UNL1        0.0614
      4 C         141.7807  141.2357  170.9206 C.3     1  UNL1        0.0175
      5 C         142.8252  140.2684  170.4479 C.3     1  UNL1        0.0175
      6 C         142.6505  140.0834  168.9696 C.3     1  UNL1        0.0614
      7 C         142.2466  140.0929  167.5150 C.3     1  UNL1        0.0595
      8 N         141.4981  140.9364  168.5287 N.3     1  UNL1       -0.2713
      9 O         140.5575  141.1104  165.8232 O.3     1  UNL1       -0.4791
     10 C         143.8257  144.8144  164.2107 C.3     1  UNL1        0.0311
     11 C         142.4540  144.2071  164.2223 C.ar    1  UNL1       -0.0187
     12 C         142.1916  142.9624  165.0169 C.ar    1  UNL1        0.0326
     13 C         140.8200  142.3552  165.0285 C.ar    1  UNL1        0.1382
     14 C         139.7109  142.9928  164.2454 C.ar    1  UNL1        0.0414
     15 C         139.9734  144.2377  163.4508 C.ar    1  UNL1        0.0558
     16 C         141.3450  144.8448  163.4392 C.ar    1  UNL1        0.0004
     17 C         138.8643  144.8754  162.6676 C.2     1  UNL1        0.2428
     18 N         137.4645  144.3492  162.7850 N.am    1  UNL1       -0.3253
     19 O         139.1550  146.0393  161.7671 O.2     1  UNL1       -0.2704
     20 H         137.2737  143.5852  163.3760 H       1  UNL1        0.1453
     21 H         136.7366  144.7677  162.2710 H       1  UNL1        0.1453
     22 C         140.9751  141.0562  167.1279 C.3     1  UNL1        0.0991
     23 C         140.2528  139.9035  166.4958 C.ar    1  UNL1       -0.0061
     24 C         140.9491  139.0492  165.4783 C.ar    1  UNL1       -0.0029
     25 C         140.2269  137.8965  164.8463 C.ar    1  UNL1       -0.0003
     26 C         138.8083  137.5980  165.2317 C.ar    1  UNL1       -0.0000
     27 C         138.1120  138.4523  166.2493 C.ar    1  UNL1       -0.0003
     28 C         138.8343  139.6051  166.8813 C.ar    1  UNL1       -0.0029
@<TRIPOS>BOND
     1    10    11    1
     2    11    12   ar
     3    12    13   ar
     4    13     9    1
     5     1     9    1
     6     1     2    1
     7     3     2    1
     8     3     4    1
     9     4     5    1
    10     6     5    1
    11     6     7    1
    12     6     8    1
    13     8    22    1
    14    22    23    1
    15    23    24   ar
    16    24    25   ar
    17    25    26   ar
    18    26    27   ar
    19    27    28   ar
    20    13    14   ar
    21    14    15   ar
    22    15    17    1
    23    17    18   am
    24    17    19    2
    25    15    16   ar
    26    16    11   ar
    27     7     1    1
    28    28    23   ar
    29     8     3    1
    30    18    20    1
    31    18    21    1
@<TRIPOS>MOLECULE
*****
 28 31 0 0 0
SMALL
GASTEIGER

@<TRIPOS>ATOM
      1 C         142.2814  141.3025  166.6513 C.3     1  UNL1        0.1686
      2 C         141.7321  139.9807  167.0999 C.3     1  UNL1        0.0595
      3 C         141.9355  139.5251  168.5144 C.3     1  UNL1        0.0614
      4 C         142.3613  139.4820  169.9521 C.3     1  UNL1        0.0175
      5 C         143.1130  140.7452  170.2508 C.3     1  UNL1        0.0175
      6 C         143.1519  141.5689  168.9978 C.3     1  UNL1        0.0614
      7 C         143.0342  142.1686  167.6174 C.3     1  UNL1        0.0595
      8 N         142.4241  140.8148  167.9247 N.3     1  UNL1       -0.2713
      9 O         142.0780  141.7582  165.2367 O.3     1  UNL1       -0.4791
     10 C         138.2690  145.2071  166.0097 C.3     1  UNL1        0.0311
     11 C         138.8635  144.0854  165.2105 C.ar    1  UNL1       -0.0187
     12 C         140.1735  143.4826  165.6232 C.ar    1  UNL1        0.0326
     13 C         140.7679  142.3610  164.8240 C.ar    1  UNL1        0.1382
     14 C         140.0522  141.8422  163.6122 C.ar    1  UNL1        0.0414
     15 C         138.7421  142.4450  163.1995 C.ar    1  UNL1        0.0558
     16 C         138.1478  143.5666  163.9987 C.ar    1  UNL1        0.0004
     17 C         138.0264  141.9262  161.9877 C.2     1  UNL1        0.2428
     18 N         137.3551  140.5854  162.0297 N.am    1  UNL1       -0.3253
     19 O         137.9819  142.7482  160.7337 O.2     1  UNL1       -0.2704
     20 H         137.3843  140.0459  162.8527 H       1  UNL1        0.1453
     21 H         136.8854  140.2450  161.2344 H       1  UNL1        0.1453
     22 C         142.2207  141.2705  166.5101 C.3     1  UNL1        0.0991
     23 C         143.3852  141.3301  165.5665 C.ar    1  UNL1       -0.0061
     24 C         144.0148  142.6505  165.2347 C.ar    1  UNL1       -0.0029
     25 C         145.1792  142.7102  164.2912 C.ar    1  UNL1       -0.0003
     26 C         145.7142  141.4495  163.6794 C.ar    1  UNL1       -0.0000
     27 C         145.0846  140.1290  164.0111 C.ar    1  UNL1       -0.0003
     28 C         143.9200  140.0694  164.9547 C.ar    1  UNL1       -0.0029
@<TRIPOS>BOND
     1    10    11    1
     2    11    12   ar
     3    12    13   ar
     4    13     9    1
     5     1     9    1
     6     1     2    1
     7     3     2    1
     8     3     4    1
     9     4     5    1
    10     6     5    1
    11     6     7    1
    12     6     8    1
    13     8    22    1
    14    22    23    1
    15    23    24   ar
    16    24    25   ar
    17    25    26   ar
    18    26    27   ar
    19    27    28   ar
    20    13    14   ar
    21    14    15   ar
    22    15    17    1
    23    17    18   am
    24    17    19    2
    25    15    16   ar
    26    16    11   ar
    27     7     1    1
    28    28    23   ar
    29     8     3    1
    30    18    20    1
    31    18    21    1
@<TRIPOS>MOLECULE
*****
 28 31 0 0 0
SMALL
GASTEIGER

@<TRIPOS>ATOM
      1 C         140.2938  141.4634  166.5639 C.3     1  UNL1        0.1686
      2 C         139.6132  140.2372  167.0960 C.3     1  UNL1        0.0595
      3 C         139.3242  140.1168  168.5629 C.3     1  UNL1        0.0614
      4 C         139.2406  140.4183  170.0299 C.3     1  UNL1        0.0175
      5 C         139.8596  141.7647  170.2624 C.3     1  UNL1        0.0175
      6 C         140.3258  142.2953  168.9391 C.3     1  UNL1        0.0614
      7 C         140.6855  142.5692  167.4987 C.3     1  UNL1        0.0595
      8 N         139.9949  141.2768  167.8888 N.3     1  UNL1       -0.2713
      9 O         140.5829  141.5839  165.0969 O.3     1  UNL1       -0.4791
     10 C         145.0478  138.9294  164.9604 C.3     1  UNL1        0.0311
     11 C         144.2201  140.1026  164.5259 C.ar    1  UNL1       -0.0187
     12 C         142.8154  140.2567  165.0286 C.ar    1  UNL1        0.0326
     13 C         141.9878  141.4298  164.5941 C.ar    1  UNL1        0.1382
     14 C         142.5649  142.4489  163.6570 C.ar    1  UNL1        0.0414
     15 C         143.9697  142.2948  163.1543 C.ar    1  UNL1        0.0558
     16 C         144.7974  141.1217  163.5887 C.ar    1  UNL1        0.0004
     17 C         144.5470  143.3139  162.2171 C.2     1  UNL1        0.2428
     18 N         145.3175  142.8703  161.0090 N.am    1  UNL1       -0.3253
     19 O         144.3537  144.7766  162.4881 O.2     1  UNL1       -0.2704
     20 H         145.4443  141.9104  160.8311 H       1  UNL1        0.1453
     21 H         145.6963  143.5392  160.3939 H       1  UNL1        0.1453
     22 C         140.2839  141.3973  166.4218 C.3     1  UNL1        0.0991
     23 C         139.4258  142.2731  165.5577 C.ar    1  UNL1       -0.0061
     24 C         139.6166  143.7608  165.5742 C.ar    1  UNL1       -0.0029
     25 C         138.7586  144.6366  164.7102 C.ar    1  UNL1       -0.0003
     26 C         137.7097  144.0247  163.8296 C.ar    1  UNL1       -0.0000
     27 C         137.5189  142.5369  163.8130 C.ar    1  UNL1       -0.0003
     28 C         138.3770  141.6612  164.6772 C.ar    1  UNL1       -0.0029
@<TRIPOS>BOND
     1    10    11    1
     2    11    12   ar
     3    12    13   ar
     4    13     9    1
     5     1     9    1
     6     1     2    1
     7     3     2    1
     8     3     4    1
     9     4     5    1
    10     6     5    1
    11     6     7    1
    12     6     8    1
    13     8    22    1
    14    22    23    1
    15    23    24   ar
    16    24    25   ar
    17    25    26   ar
    18    26    27   ar
    19    27    28   ar
    20    13    14   ar
    21    14    15   ar
    22    15    17    1
    23    17    18   am
    24    17    19    2
    25    15    16   ar
    26    16    11   ar
    27     7     1    1
    28    28    23   ar
    29     8     3    1
    30    18    20    1
    31    18    21    1
@<TRIPOS>MOLECULE
*****
 28 31 0 0 0
SMALL
GASTEIGER

@<TRIPOS>ATOM
      1 C         142.1496  142.1001  165.1023 C.3     1  UNL1        0.1686
      2 C         142.5331  140.6793  164.8122 C.3     1  UNL1        0.0595
      3 C         143.9064  140.3632  164.2982 C.3     1  UNL1        0.0614
      4 C         145.3206  140.5131  163.8212 C.3     1  UNL1        0.0175
      5 C         145.6705  141.9712  163.8594 C.3     1  UNL1        0.0175
      6 C         144.4726  142.7225  164.3601 C.3     1  UNL1        0.0614
      7 C         143.1393  143.2048  164.8784 C.3     1  UNL1        0.0595
      8 N         143.3823  141.7287  164.6313 N.3     1  UNL1       -0.2713
      9 O         140.7762  142.4163  165.6163 O.3     1  UNL1       -0.4791
     10 C         137.7550  138.4289  167.0212 C.3     1  UNL1        0.0311
     11 C         138.6523  139.5726  167.3916 C.ar    1  UNL1       -0.0187
     12 C         139.2657  140.4226  166.3188 C.ar    1  UNL1        0.0326
     13 C         140.1629  141.5662  166.6892 C.ar    1  UNL1        0.1382
     14 C         140.4468  141.8596  168.1325 C.ar    1  UNL1        0.0414
     15 C         139.8334  141.0095  169.2054 C.ar    1  UNL1        0.0558
     16 C         138.9362  139.8660  168.8350 C.ar    1  UNL1        0.0004
     17 C         140.1173  141.3029  170.6488 C.2     1  UNL1        0.2428
     18 N         140.4804  140.1874  171.5836 N.am    1  UNL1       -0.3253
     19 O         140.0381  142.7119  171.1574 O.2     1  UNL1       -0.2704
     20 H         140.5324  139.2627  171.2498 H       1  UNL1        0.1453
     21 H         140.6667  140.3800  172.5309 H       1  UNL1        0.1453
     22 C         142.0090  142.0448  165.1453 C.3     1  UNL1        0.0991
     23 C         141.0389  142.7946  164.2811 C.ar    1  UNL1       -0.0061
     24 C         140.5430  144.1446  164.7074 C.ar    1  UNL1       -0.0029
     25 C         139.5730  144.8944  163.8433 C.ar    1  UNL1       -0.0003
     26 C         139.0989  144.2943  162.5529 C.ar    1  UNL1       -0.0000
     27 C         139.5948  142.9442  162.1266 C.ar    1  UNL1       -0.0003
     28 C         140.5649  142.1945  162.9908 C.ar    1  UNL1       -0.0029
@<TRIPOS>BOND
     1    10    11    1
     2    11    12   ar
     3    12    13   ar
     4    13     9    1
     5     1     9    1
     6     1     2    1
     7     3     2    1
     8     3     4    1
     9     4     5    1
    10     6     5    1
    11     6     7    1
    12     6     8    1
    13     8    22    1
    14    22    23    1
    15    23    24   ar
    16    24    25   ar
    17    25    26   ar
    18    26    27   ar
    19    27    28   ar
    20    13    14   ar
    21    14    15   ar
    22    15    17    1
    23    17    18   am
    24    17    19    2
    25    15    16   ar
    26    16    11   ar
    27     7     1    1
    28    28    23   ar
    29     8     3    1
    30    18    20    1
    31    18    21    1
@<TRIPOS>MOLECULE
*****
 28 31 0 0 0
SMALL
GASTEIGER

@<TRIPOS>ATOM
      1 C         141.0461  140.7513  167.2494 C.3     1  UNL1        0.1686
      2 C         140.4888  141.6222  168.3361 C.3     1  UNL1        0.0595
      3 C         141.0124  141.5015  169.7366 C.3     1  UNL1        0.0614
      4 C         141.8026  141.0544  170.9306 C.3     1  UNL1        0.0175
      5 C         142.7484  139.9792  170.4843 C.3     1  UNL1        0.0175
      6 C         142.5428  139.7616  169.0145 C.3     1  UNL1        0.0614
      7 C         142.1270  139.7597  167.5632 C.3     1  UNL1        0.0595
      8 N         141.4698  140.7025  168.5523 N.3     1  UNL1       -0.2713
      9 O         140.5225  140.8719  165.8489 O.3     1  UNL1       -0.4791
     10 C         138.3841  144.8181  163.2307 C.3     1  UNL1        0.0311
     11 C         139.5969  144.1386  163.7943 C.ar    1  UNL1       -0.0187
     12 C         139.4533  142.8450  164.5398 C.ar    1  UNL1        0.0326
     13 C         140.6660  142.1656  165.1034 C.ar    1  UNL1        0.1382
     14 C         142.0223  142.7798  164.9216 C.ar    1  UNL1        0.0414
     15 C         142.1659  144.0735  164.1760 C.ar    1  UNL1        0.0558
     16 C         140.9531  144.7529  163.6124 C.ar    1  UNL1        0.0004
     17 C         143.5222  144.6878  163.9941 C.2     1  UNL1        0.2428
     18 N         143.8719  145.3645  162.7019 N.am    1  UNL1       -0.3253
     19 O         144.5288  144.6255  165.1045 O.2     1  UNL1       -0.2704
     20 H         143.2112  145.4055  161.9732 H       1  UNL1        0.1453
     21 H         144.7621  145.7677  162.5826 H       1  UNL1        0.1453
     22 C         140.9462  140.8232  167.1519 C.3     1  UNL1        0.0991
     23 C         140.1642  139.6968  166.5439 C.ar    1  UNL1       -0.0061
     24 C         138.7785  139.3960  167.0331 C.ar    1  UNL1       -0.0029
     25 C         137.9965  138.2697  166.4251 C.ar    1  UNL1       -0.0003
     26 C         138.6001  137.4440  165.3279 C.ar    1  UNL1       -0.0000
     27 C         139.9859  137.7448  164.8386 C.ar    1  UNL1       -0.0003
     28 C         140.7679  138.8712  165.4467 C.ar    1  UNL1       -0.0029
@<TRIPOS>BOND
     1    10    11    1
     2    11    12   ar
     3    12    13   ar
     4    13     9    1
     5     1     9    1
     6     1     2    1
     7     3     2    1
     8     3     4    1
     9     4     5    1
    10     6     5    1
    11     6     7    1
    12     6     8    1
    13     8    22    1
    14    22    23    1
    15    23    24   ar
    16    24    25   ar
    17    25    26   ar
    18    26    27   ar
    19    27    28   ar
    20    13    14   ar
    21    14    15   ar
    22    15    17    1
    23    17    18   am
    24    17    19    2
    25    15    16   ar
    26    16    11   ar
    27     7     1    1
    28    28    23   ar
    29     8     3    1
    30    18    20    1
    31    18    21    1
@<TRIPOS>MOLECULE
*****
 28 31 0 0 0
SMALL
GASTEIGER

@<TRIPOS>ATOM
      1 C         142.1336  140.8407  166.4595 C.3     1  UNL1        0.1686
      2 C         141.9477  141.9939  167.4006 C.3     1  UNL1        0.0595
      3 C         142.0829  141.7843  168.8797 C.3     1  UNL1        0.0614
      4 C         142.3019  141.1360  170.2145 C.3     1  UNL1        0.0175
      5 C         142.5945  139.6833  169.9818 C.3     1  UNL1        0.0175
      6 C         142.5564  139.4338  168.5032 C.3     1  UNL1        0.0614
      7 C         142.4546  139.4778  166.9976 C.3     1  UNL1        0.0595
      8 N         142.2402  140.7323  167.8220 N.3     1  UNL1       -0.2713
      9 O         141.9984  141.0504  164.9803 O.3     1  UNL1       -0.4791
     10 C         137.9897  138.9469  162.4295 C.3     1  UNL1        0.0311
     11 C         138.6336  140.1313  163.0875 C.ar    1  UNL1       -0.0187
     12 C         139.9941  139.9987  163.7050 C.ar    1  UNL1        0.0326
     13 C         140.6378  141.1830  164.3629 C.ar    1  UNL1        0.1382
     14 C         139.9211  142.5000  164.4034 C.ar    1  UNL1        0.0414
     15 C         138.5605  142.6327  163.7860 C.ar    1  UNL1        0.0558
     16 C         137.9167  141.4483  163.1280 C.ar    1  UNL1        0.0004
     17 C         137.8436  143.9497  163.8264 C.2     1  UNL1        0.2428
     18 N         137.4396  144.6233  162.5485 N.am    1  UNL1       -0.3253
     19 O         137.5308  144.5931  165.1449 O.2     1  UNL1       -0.2704
     20 H         137.6449  144.2010  161.6832 H       1  UNL1        0.1453
     21 H         136.9691  145.4877  162.5751 H       1  UNL1        0.1453
     22 C         142.1050  140.9420  166.3429 C.3     1  UNL1        0.0991
     23 C         143.3304  141.1081  165.4939 C.ar    1  UNL1       -0.0061
     24 C         143.9184  142.4720  165.2844 C.ar    1  UNL1       -0.0029
     25 C         145.1437  142.6382  164.4354 C.ar    1  UNL1       -0.0003
     26 C         145.7811  141.4404  163.7958 C.ar    1  UNL1       -0.0000
     27 C         145.1931  140.0764  164.0053 C.ar    1  UNL1       -0.0003
     28 C         143.9677  139.9103  164.8543 C.ar    1  UNL1       -0.0029
@<TRIPOS>BOND
     1    10    11    1
     2    11    12   ar
     3    12    13   ar
     4    13     9    1
     5     1     9    1
     6     1     2    1
     7     3     2    1
     8     3     4    1
     9     4     5    1
    10     6     5    1
    11     6     7    1
    12     6     8    1
    13     8    22    1
    14    22    23    1
    15    23    24   ar
    16    24    25   ar
    17    25    26   ar
    18    26    27   ar
    19    27    28   ar
    20    13    14   ar
    21    14    15   ar
    22    15    17    1
    23    17    18   am
    24    17    19    2
    25    15    16   ar
    26    16    11   ar
    27     7     1    1
    28    28    23   ar
    29     8     3    1
    30    18    20    1
    31    18    21    1
