@<TRIPOS>MOLECULE
*****
 34 38 0 0 0
SMALL
GASTEIGER

@<TRIPOS>ATOM
      1 C         140.8848  144.6602  158.7761 C.ar    1  UNL1        0.1176
      2 C         139.9586  143.6557  159.3951 C.ar    1  UNL1        0.0981
      3 N         140.5013  143.2958  160.7463 N.ar    1  UNL1       -0.3048
      4 C         141.7630  144.0777  160.9625 C.ar    1  UNL1        0.1986
      5 N         142.0000  144.9210  159.7448 N.ar    1  UNL1       -0.2211
      6 C         142.5329  143.9209  162.2402 C.2     1  UNL1        0.2837
      7 O         143.7946  144.7028  162.4564 O.2     1  UNL1       -0.2666
      8 N         142.0413  142.9820  163.3017 N.am    1  UNL1       -0.2675
      9 C         140.7797  142.2001  163.0855 C.3     1  UNL1        0.1186
     10 C         140.0096  142.3569  161.8078 C.3     1  UNL1        0.1291
     11 C         142.7141  143.8837  156.5287 C.3     1  UNL1        0.0343
     12 C         141.6388  144.9046  156.3019 C.ar    1  UNL1        0.0166
     13 C         141.4780  145.5373  154.9514 C.ar    1  UNL1        0.0991
     14 N         140.4027  146.5582  154.7245 N.ar    1  UNL1       -0.2123
     15 C         139.4881  146.9464  155.8482 C.ar    1  UNL1        0.2218
     16 N         139.6488  146.3137  157.1987 N.ar    1  UNL1       -0.2123
     17 C         140.7242  145.2928  157.4256 C.ar    1  UNL1        0.1008
     18 N         138.4128  147.9673  155.6214 N.pl3   1  UNL1       -0.2681
     19 H         137.4916  147.6776  155.4295 H       1  UNL1        0.1565
     20 C         138.7408  149.4295  155.6870 C.ar    1  UNL1        0.1328
     21 C         139.2958  150.2597  154.5677 C.ar    1  UNL1        0.0565
     22 C         139.4695  151.6615  155.0723 C.ar    1  UNL1        0.1230
     23 N         139.0218  151.6977  156.5035 N.ar    1  UNL1       -0.1665
     24 N         138.5715  150.3182  156.8834 N.ar    1  UNL1       -0.2355
     25 C         138.0444  149.9009  158.2243 C.3     1  UNL1        0.1552
     26 C         142.8113  142.8252  164.5794 C.3     1  UNL1        0.1207
     27 C         143.1134  141.4549  165.1096 C.ar    1  UNL1        0.0001
     28 C         143.9695  140.5147  164.3138 C.ar    1  UNL1       -0.0002
     29 C         144.2715  139.1444  164.8440 C.ar    1  UNL1        0.0317
     30 C         143.7175  138.7142  166.1698 C.ar    1  UNL1        0.1674
     31 F         144.0196  137.3440  166.7000 F       1  UNL1       -0.2018
     32 C         142.8614  139.6544  166.9657 C.ar    1  UNL1        0.1671
     33 F         142.3074  139.2243  168.2916 F       1  UNL1       -0.2018
     34 C         142.5594  141.0247  166.4355 C.ar    1  UNL1        0.0294
@<TRIPOS>BOND
     1    11    12    1
     2    12    13   ar
     3    13    14   ar
     4    14    15   ar
     5    15    18    1
     6    18    20    1
     7    20    21   ar
     8    21    22   ar
     9    22    23   ar
    10    23    24   ar
    11    24    25    1
    12    15    16   ar
    13    16    17   ar
    14    17     1    1
    15     1     2   ar
    16     2     3   ar
    17     3     4   ar
    18     4     5   ar
    19     4     6    1
    20     6     7    2
    21     6     8   am
    22     8    26    1
    23    26    27    1
    24    27    28   ar
    25    28    29   ar
    26    29    30   ar
    27    30    31    1
    28    30    32   ar
    29    32    33    1
    30    32    34   ar
    31     8     9    1
    32     9    10    1
    33    17    12   ar
    34     5     1   ar
    35    34    27   ar
    36    24    20   ar
    37    10     3    1
    38    18    19    1
@<TRIPOS>MOLECULE
*****
 34 38 0 0 0
SMALL
GASTEIGER

@<TRIPOS>ATOM
      1 C         141.7309  138.3366  158.9530 C.ar    1  UNL1        0.1176
      2 C         140.2883  138.7445  158.9030 C.ar    1  UNL1        0.0981
      3 N         139.7360  138.6660  160.2954 N.ar    1  UNL1       -0.3048
      4 C         140.8373  138.2096  161.2059 C.ar    1  UNL1        0.1986
      5 N         142.0702  138.0060  160.3762 N.ar    1  UNL1       -0.2211
      6 C         140.5751  138.0384  162.6729 C.2     1  UNL1        0.2837
      7 O         141.6763  137.5820  163.5834 O.2     1  UNL1       -0.2666
      8 N         139.2116  138.3235  163.2293 N.am    1  UNL1       -0.2675
      9 C         138.1104  138.7799  162.3189 C.3     1  UNL1        0.1186
     10 C         138.3726  138.9511  160.8519 C.3     1  UNL1        0.1291
     11 C         142.9802  140.8481  157.8891 C.3     1  UNL1        0.0343
     12 C         143.2941  139.5266  157.2528 C.ar    1  UNL1        0.0166
     13 C         144.2327  139.4607  156.0846 C.ar    1  UNL1        0.0991
     14 N         144.5467  138.1392  155.4483 N.ar    1  UNL1       -0.2123
     15 C         143.9222  136.8834  155.9802 C.ar    1  UNL1        0.2218
     16 N         142.9835  136.9493  157.1485 N.ar    1  UNL1       -0.2123
     17 C         142.6695  138.2708  157.7848 C.ar    1  UNL1        0.1008
     18 N         144.2361  135.5618  155.3440 N.pl3   1  UNL1       -0.2681
     19 H         145.0516  135.4576  154.8024 H       1  UNL1        0.1565
     20 C         143.3076  134.3990  155.5329 C.ar    1  UNL1        0.1328
     21 C         142.1638  134.0292  154.6357 C.ar    1  UNL1        0.0565
     22 C         141.5092  132.8035  155.2005 C.ar    1  UNL1        0.1230
     23 N         142.2484  132.4157  156.4467 N.ar    1  UNL1       -0.1665
     24 N         143.3600  133.4018  156.6522 N.ar    1  UNL1       -0.2355
     25 C         144.3500  133.3923  157.7790 C.3     1  UNL1        0.1552
     26 C         138.9495  138.1523  164.6963 C.3     1  UNL1        0.1207
     27 C         139.3389  139.2346  165.6591 C.ar    1  UNL1        0.0001
     28 C         140.0663  140.4504  165.1665 C.ar    1  UNL1       -0.0002
     29 C         140.4558  141.5328  166.1293 C.ar    1  UNL1        0.0317
     30 C         140.1178  141.3994  167.5845 C.ar    1  UNL1        0.1674
     31 F         140.5072  142.4817  168.5473 F       1  UNL1       -0.2018
     32 C         139.3903  140.1836  168.0772 C.ar    1  UNL1        0.1671
     33 F         139.0522  140.0501  169.5325 F       1  UNL1       -0.2018
     34 C         139.0009  139.1012  167.1144 C.ar    1  UNL1        0.0294
@<TRIPOS>BOND
     1    11    12    1
     2    12    13   ar
     3    13    14   ar
     4    14    15   ar
     5    15    18    1
     6    18    20    1
     7    20    21   ar
     8    21    22   ar
     9    22    23   ar
    10    23    24   ar
    11    24    25    1
    12    15    16   ar
    13    16    17   ar
    14    17     1    1
    15     1     2   ar
    16     2     3   ar
    17     3     4   ar
    18     4     5   ar
    19     4     6    1
    20     6     7    2
    21     6     8   am
    22     8    26    1
    23    26    27    1
    24    27    28   ar
    25    28    29   ar
    26    29    30   ar
    27    30    31    1
    28    30    32   ar
    29    32    33    1
    30    32    34   ar
    31     8     9    1
    32     9    10    1
    33    17    12   ar
    34     5     1   ar
    35    34    27   ar
    36    24    20   ar
    37    10     3    1
    38    18    19    1
@<TRIPOS>MOLECULE
*****
 34 38 0 0 0
SMALL
GASTEIGER

@<TRIPOS>ATOM
      1 C         142.8169  138.1034  160.2659 C.ar    1  UNL1        0.1176
      2 C         143.8861  139.0763  160.6660 C.ar    1  UNL1        0.0981
      3 N         143.8203  139.2510  162.1544 N.ar    1  UNL1       -0.3048
      4 C         142.7104  138.3861  162.6740 C.ar    1  UNL1        0.1986
      5 N         142.0903  137.6768  161.5069 N.ar    1  UNL1       -0.2211
      6 C         142.4079  138.3561  164.1429 C.2     1  UNL1        0.2837
      7 O         141.2980  137.4912  164.6626 O.2     1  UNL1       -0.2666
      8 N         143.2153  139.1911  165.0921 N.am    1  UNL1       -0.2675
      9 C         144.3251  140.0560  164.5725 C.3     1  UNL1        0.1186
     10 C         144.6277  140.0860  163.1035 C.3     1  UNL1        0.1291
     11 C         140.5312  139.2983  158.7335 C.3     1  UNL1        0.0343
     12 C         141.3826  138.2361  158.1037 C.ar    1  UNL1        0.0166
     13 C         141.0911  137.7713  156.7076 C.ar    1  UNL1        0.0991
     14 N         141.9425  136.7090  156.0776 N.ar    1  UNL1       -0.2123
     15 C         143.0853  136.1115  156.8437 C.ar    1  UNL1        0.2218
     16 N         143.3767  136.5764  158.2398 N.ar    1  UNL1       -0.2123
     17 C         142.5254  137.6386  158.8698 C.ar    1  UNL1        0.1008
     18 N         143.9366  135.0493  156.2139 N.pl3   1  UNL1       -0.2681
     19 H         144.6067  135.2937  155.5352 H       1  UNL1        0.1565
     20 C         143.7671  133.6147  156.6179 C.ar    1  UNL1        0.1328
     21 C         144.7188  132.8175  157.4599 C.ar    1  UNL1        0.0565
     22 C         144.1560  131.4356  157.6133 C.ar    1  UNL1        0.1230
     23 N         142.8566  131.3787  156.8660 N.ar    1  UNL1       -0.1665
     24 N         142.6163  132.7255  156.2509 N.ar    1  UNL1       -0.2355
     25 C         141.4329  133.1147  155.4154 C.3     1  UNL1        0.1552
     26 C         142.9127  139.1611  166.5610 C.3     1  UNL1        0.1207
     27 C         142.2277  140.3273  167.2095 C.ar    1  UNL1        0.0001
     28 C         140.8162  140.6706  166.8358 C.ar    1  UNL1       -0.0002
     29 C         140.1311  141.8369  167.4844 C.ar    1  UNL1        0.0317
     30 C         140.8575  142.6598  168.5066 C.ar    1  UNL1        0.1674
     31 F         140.1725  143.8260  169.1551 F       1  UNL1       -0.2018
     32 C         142.2691  142.3165  168.8804 C.ar    1  UNL1        0.1671
     33 F         142.9956  143.1394  169.9027 F       1  UNL1       -0.2018
     34 C         142.9541  141.1503  168.2319 C.ar    1  UNL1        0.0294
@<TRIPOS>BOND
     1    11    12    1
     2    12    13   ar
     3    13    14   ar
     4    14    15   ar
     5    15    18    1
     6    18    20    1
     7    20    21   ar
     8    21    22   ar
     9    22    23   ar
    10    23    24   ar
    11    24    25    1
    12    15    16   ar
    13    16    17   ar
    14    17     1    1
    15     1     2   ar
    16     2     3   ar
    17     3     4   ar
    18     4     5   ar
    19     4     6    1
    20     6     7    2
    21     6     8   am
    22     8    26    1
    23    26    27    1
    24    27    28   ar
    25    28    29   ar
    26    29    30   ar
    27    30    31    1
    28    30    32   ar
    29    32    33    1
    30    32    34   ar
    31     8     9    1
    32     9    10    1
    33    17    12   ar
    34     5     1   ar
    35    34    27   ar
    36    24    20   ar
    37    10     3    1
    38    18    19    1
@<TRIPOS>MOLECULE
*****
 34 38 0 0 0
SMALL
GASTEIGER

@<TRIPOS>ATOM
      1 C         142.2886  138.4549  158.8858 C.ar    1  UNL1        0.1176
      2 C         142.5346  137.7086  160.1634 C.ar    1  UNL1        0.0981
      3 N         141.5054  138.1477  161.1623 N.ar    1  UNL1       -0.3048
      4 C         140.6232  139.1655  160.5020 C.ar    1  UNL1        0.1986
      5 N         141.1073  139.3553  159.0950 N.ar    1  UNL1       -0.2211
      6 C         139.4931  139.7878  161.2672 C.2     1  UNL1        0.2837
      7 O         138.6110  140.8056  160.6069 O.2     1  UNL1       -0.2666
      8 N         139.2452  139.3924  162.6928 N.am    1  UNL1       -0.2675
      9 C         140.1273  138.3748  163.3530 C.3     1  UNL1        0.1186
     10 C         141.2574  137.7523  162.5878 C.3     1  UNL1        0.1291
     11 C         143.4807  140.8915  157.6042 C.3     1  UNL1        0.0343
     12 C         143.6802  139.5422  156.9802 C.ar    1  UNL1        0.0166
     13 C         144.4758  139.4110  155.7153 C.ar    1  UNL1        0.0991
     14 N         144.6754  138.0617  155.0912 N.ar    1  UNL1       -0.2123
     15 C         144.0793  136.8435  155.7319 C.ar    1  UNL1        0.2218
     16 N         143.2837  136.9746  156.9968 N.ar    1  UNL1       -0.2123
     17 C         143.0842  138.3239  157.6209 C.ar    1  UNL1        0.1008
     18 N         144.2788  135.4941  155.1079 N.pl3   1  UNL1       -0.2681
     19 H         145.0639  135.3266  154.5379 H       1  UNL1        0.1565
     20 C         143.2822  134.4000  155.3521 C.ar    1  UNL1        0.1328
     21 C         142.1286  134.0435  154.4622 C.ar    1  UNL1        0.0565
     22 C         141.3976  132.8935  155.0892 C.ar    1  UNL1        0.1230
     23 N         142.0995  132.5393  156.3667 N.ar    1  UNL1       -0.1665
     24 N         143.2643  133.4704  156.5292 N.ar    1  UNL1       -0.2355
     25 C         144.2398  133.4717  157.6686 C.3     1  UNL1        0.1552
     26 C         138.1151  140.0149  163.4580 C.3     1  UNL1        0.1207
     27 C         138.2655  141.3940  164.0284 C.ar    1  UNL1        0.0001
     28 C         137.4608  142.5292  163.4683 C.ar    1  UNL1       -0.0002
     29 C         137.6112  143.9083  164.0388 C.ar    1  UNL1        0.0317
     30 C         138.5663  144.1523  165.1693 C.ar    1  UNL1        0.1674
     31 F         138.7167  145.5314  165.7398 F       1  UNL1       -0.2018
     32 C         139.3710  143.0171  165.7295 C.ar    1  UNL1        0.1671
     33 F         140.3262  143.2610  166.8601 F       1  UNL1       -0.2018
     34 C         139.2206  141.6380  165.1591 C.ar    1  UNL1        0.0294
@<TRIPOS>BOND
     1    11    12    1
     2    12    13   ar
     3    13    14   ar
     4    14    15   ar
     5    15    18    1
     6    18    20    1
     7    20    21   ar
     8    21    22   ar
     9    22    23   ar
    10    23    24   ar
    11    24    25    1
    12    15    16   ar
    13    16    17   ar
    14    17     1    1
    15     1     2   ar
    16     2     3   ar
    17     3     4   ar
    18     4     5   ar
    19     4     6    1
    20     6     7    2
    21     6     8   am
    22     8    26    1
    23    26    27    1
    24    27    28   ar
    25    28    29   ar
    26    29    30   ar
    27    30    31    1
    28    30    32   ar
    29    32    33    1
    30    32    34   ar
    31     8     9    1
    32     9    10    1
    33    17    12   ar
    34     5     1   ar
    35    34    27   ar
    36    24    20   ar
    37    10     3    1
    38    18    19    1
@<TRIPOS>MOLECULE
*****
 34 38 0 0 0
SMALL
GASTEIGER

@<TRIPOS>ATOM
      1 C         138.1455  140.4553  160.2273 C.ar    1  UNL1        0.1176
      2 C         138.7854  139.1307  160.5204 C.ar    1  UNL1        0.0981
      3 N         138.9082  138.9946  162.0092 N.ar    1  UNL1       -0.3048
      4 C         138.3441  140.2351  162.6361 C.ar    1  UNL1        0.1986
      5 N         137.8728  141.1378  161.5349 N.ar    1  UNL1       -0.2211
      6 C         138.3326  140.3823  164.1288 C.2     1  UNL1        0.2837
      7 O         137.7686  141.6228  164.7558 O.2     1  UNL1       -0.2666
      8 N         138.8851  139.2891  164.9946 N.am    1  UNL1       -0.2675
      9 C         139.4492  138.0487  164.3677 C.3     1  UNL1        0.1186
     10 C         139.4607  137.9014  162.8749 C.3     1  UNL1        0.1291
     11 C         139.5130  142.9440  159.2593 C.3     1  UNL1        0.0343
     12 C         138.5169  142.2458  158.3817 C.ar    1  UNL1        0.0166
     13 C         138.2044  142.7919  157.0200 C.ar    1  UNL1        0.0991
     14 N         137.2083  142.0938  156.1423 N.ar    1  UNL1       -0.2123
     15 C         136.5246  140.8495  156.6262 C.ar    1  UNL1        0.2218
     16 N         136.8370  140.3034  157.9879 N.ar    1  UNL1       -0.2123
     17 C         137.8331  141.0015  158.8656 C.ar    1  UNL1        0.1008
     18 N         135.5285  140.1513  155.7485 N.pl3   1  UNL1       -0.2681
     19 H         135.8304  139.4645  155.1111 H       1  UNL1        0.1565
     20 C         134.0725  140.4996  155.8421 C.ar    1  UNL1        0.1328
     21 C         133.3119  141.3732  154.8891 C.ar    1  UNL1        0.0565
     22 C         131.8908  141.4488  155.3631 C.ar    1  UNL1        0.1230
     23 N         131.7731  140.6220  156.6091 N.ar    1  UNL1       -0.1665
     24 N         133.1216  140.0353  156.9052 N.ar    1  UNL1       -0.2355
     25 C         133.4596  139.1414  158.0613 C.3     1  UNL1        0.1552
     26 C         138.8736  139.4364  166.4873 C.3     1  UNL1        0.1207
     27 C         140.0624  140.0188  167.1926 C.ar    1  UNL1        0.0001
     28 C         140.1070  140.0438  168.6918 C.ar    1  UNL1       -0.0002
     29 C         141.2959  140.6263  169.3971 C.ar    1  UNL1        0.0317
     30 C         142.4400  141.1836  168.6034 C.ar    1  UNL1        0.1674
     31 F         143.6289  141.7661  169.3087 F       1  UNL1       -0.2018
     32 C         142.3955  141.1586  167.1042 C.ar    1  UNL1        0.1671
     33 F         143.5397  141.7161  166.3104 F       1  UNL1       -0.2018
     34 C         141.2067  140.5762  166.3989 C.ar    1  UNL1        0.0294
@<TRIPOS>BOND
     1    11    12    1
     2    12    13   ar
     3    13    14   ar
     4    14    15   ar
     5    15    18    1
     6    18    20    1
     7    20    21   ar
     8    21    22   ar
     9    22    23   ar
    10    23    24   ar
    11    24    25    1
    12    15    16   ar
    13    16    17   ar
    14    17     1    1
    15     1     2   ar
    16     2     3   ar
    17     3     4   ar
    18     4     5   ar
    19     4     6    1
    20     6     7    2
    21     6     8   am
    22     8    26    1
    23    26    27    1
    24    27    28   ar
    25    28    29   ar
    26    29    30   ar
    27    30    31    1
    28    30    32   ar
    29    32    33    1
    30    32    34   ar
    31     8     9    1
    32     9    10    1
    33    17    12   ar
    34     5     1   ar
    35    34    27   ar
    36    24    20   ar
    37    10     3    1
    38    18    19    1
@<TRIPOS>MOLECULE
*****
 34 38 0 0 0
SMALL
GASTEIGER

@<TRIPOS>ATOM
      1 C         138.8305  141.9731  159.1936 C.ar    1  UNL1        0.1176
      2 C         140.0177  141.1286  159.5506 C.ar    1  UNL1        0.0981
      3 N         140.4221  141.4676  160.9547 N.ar    1  UNL1       -0.3048
      4 C         139.4849  142.5215  161.4655 C.ar    1  UNL1        0.1986
      5 N         138.5012  142.8340  160.3770 N.ar    1  UNL1       -0.2211
      6 C         139.6483  143.0605  162.8557 C.2     1  UNL1        0.2837
      7 O         138.7111  144.1145  163.3665 O.2     1  UNL1       -0.2666
      8 N         140.7489  142.5456  163.7352 N.am    1  UNL1       -0.2675
      9 C         141.6861  141.4917  163.2245 C.3     1  UNL1        0.1186
     10 C         141.5227  140.9527  161.8342 C.3     1  UNL1        0.1291
     11 C         139.4613  144.0306  157.1033 C.3     1  UNL1        0.0343
     12 C         138.4161  142.9879  156.8381 C.ar    1  UNL1        0.0166
     13 C         137.6862  142.9739  155.5276 C.ar    1  UNL1        0.0991
     14 N         136.6410  141.9313  155.2623 N.ar    1  UNL1       -0.2123
     15 C         136.3256  140.9026  156.3074 C.ar    1  UNL1        0.2218
     16 N         137.0555  140.9166  157.6178 N.ar    1  UNL1       -0.2123
     17 C         138.1007  141.9592  157.8832 C.ar    1  UNL1        0.1008
     18 N         135.2804  139.8599  156.0422 N.pl3   1  UNL1       -0.2681
     19 H         135.5481  138.9541  155.7645 H       1  UNL1        0.1565
     20 C         133.8274  140.1973  156.2000 C.ar    1  UNL1        0.1328
     21 C         133.0409  141.1357  155.3334 C.ar    1  UNL1        0.0565
     22 C         131.6332  141.1739  155.8500 C.ar    1  UNL1        0.1230
     23 N         131.5496  140.2591  157.0358 N.ar    1  UNL1       -0.1665
     24 N         132.9057  139.6555  157.2521 N.ar    1  UNL1       -0.2355
     25 C         133.2752  138.6812  158.3311 C.3     1  UNL1        0.1552
     26 C         140.9123  143.0847  165.1254 C.3     1  UNL1        0.1207
     27 C         140.9845  142.1434  166.2911 C.ar    1  UNL1        0.0001
     28 C         142.2339  142.0675  167.1175 C.ar    1  UNL1       -0.0002
     29 C         142.3061  141.1261  168.2833 C.ar    1  UNL1        0.0317
     30 C         141.1289  140.2608  168.6225 C.ar    1  UNL1        0.1674
     31 F         141.2010  139.3195  169.7881 F       1  UNL1       -0.2018
     32 C         139.8793  140.3367  167.7960 C.ar    1  UNL1        0.1671
     33 F         138.7019  139.4714  168.1352 F       1  UNL1       -0.2018
     34 C         139.8071  141.2780  166.6304 C.ar    1  UNL1        0.0294
@<TRIPOS>BOND
     1    11    12    1
     2    12    13   ar
     3    13    14   ar
     4    14    15   ar
     5    15    18    1
     6    18    20    1
     7    20    21   ar
     8    21    22   ar
     9    22    23   ar
    10    23    24   ar
    11    24    25    1
    12    15    16   ar
    13    16    17   ar
    14    17     1    1
    15     1     2   ar
    16     2     3   ar
    17     3     4   ar
    18     4     5   ar
    19     4     6    1
    20     6     7    2
    21     6     8   am
    22     8    26    1
    23    26    27    1
    24    27    28   ar
    25    28    29   ar
    26    29    30   ar
    27    30    31    1
    28    30    32   ar
    29    32    33    1
    30    32    34   ar
    31     8     9    1
    32     9    10    1
    33    17    12   ar
    34     5     1   ar
    35    34    27   ar
    36    24    20   ar
    37    10     3    1
    38    18    19    1
@<TRIPOS>MOLECULE
*****
 34 38 0 0 0
SMALL
GASTEIGER

@<TRIPOS>ATOM
      1 C         142.2920  138.4930  160.3889 C.ar    1  UNL1        0.1176
      2 C         141.0377  138.1424  161.1331 C.ar    1  UNL1        0.0981
      3 N         141.3361  138.2089  162.6016 N.ar    1  UNL1       -0.3048
      4 C         142.7749  138.6005  162.7650 C.ar    1  UNL1        0.1986
      5 N         143.3656  138.7761  161.3974 N.ar    1  UNL1       -0.2211
      6 C         143.3612  138.7466  164.1379 C.2     1  UNL1        0.2837
      7 O         144.7999  139.1383  164.3012 O.2     1  UNL1       -0.2666
      8 N         142.5087  138.5011  165.3474 N.am    1  UNL1       -0.2675
      9 C         141.0700  138.1095  165.1841 C.3     1  UNL1        0.1186
     10 C         140.4837  137.9634  163.8111 C.3     1  UNL1        0.1291
     11 C         141.3906  140.9245  158.8804 C.3     1  UNL1        0.0343
     12 C         141.9950  139.7661  158.1437 C.ar    1  UNL1        0.0166
     13 C         142.1487  139.8234  156.6526 C.ar    1  UNL1        0.0991
     14 N         142.7531  138.6650  155.9158 N.ar    1  UNL1       -0.2123
     15 C         143.2037  137.4493  156.6700 C.ar    1  UNL1        0.2218
     16 N         143.0500  137.3920  158.1611 N.ar    1  UNL1       -0.2123
     17 C         142.4456  138.5504  158.8979 C.ar    1  UNL1        0.1008
     18 N         143.8081  136.2909  155.9333 N.pl3   1  UNL1       -0.2681
     19 H         144.5562  136.4397  155.3108 H       1  UNL1        0.1565
     20 C         143.2727  134.9058  156.1450 C.ar    1  UNL1        0.1328
     21 C         143.9597  133.7991  156.8888 C.ar    1  UNL1        0.0565
     22 C         143.0680  132.5935  156.8535 C.ar    1  UNL1        0.1230
     23 N         141.8298  132.9550  156.0878 N.ar    1  UNL1       -0.1665
     24 N         141.9564  134.3841  155.6499 N.ar    1  UNL1       -0.2355
     25 C         140.9443  135.1560  154.8562 C.3     1  UNL1        0.1552
     26 C         143.0951  138.6473  166.7204 C.3     1  UNL1        0.1207
     27 C         142.8008  139.8719  167.5350 C.ar    1  UNL1        0.0001
     28 C         142.7628  141.2192  166.8768 C.ar    1  UNL1       -0.0002
     29 C         142.4685  142.4440  167.6914 C.ar    1  UNL1        0.0317
     30 C         142.2124  142.3214  169.1642 C.ar    1  UNL1        0.1674
     31 F         141.9182  143.5460  169.9789 F       1  UNL1       -0.2018
     32 C         142.2504  140.9740  169.8225 C.ar    1  UNL1        0.1671
     33 F         141.9943  140.8513  171.2954 F       1  UNL1       -0.2018
     34 C         142.5447  139.7494  169.0079 C.ar    1  UNL1        0.0294
@<TRIPOS>BOND
     1    11    12    1
     2    12    13   ar
     3    13    14   ar
     4    14    15   ar
     5    15    18    1
     6    18    20    1
     7    20    21   ar
     8    21    22   ar
     9    22    23   ar
    10    23    24   ar
    11    24    25    1
    12    15    16   ar
    13    16    17   ar
    14    17     1    1
    15     1     2   ar
    16     2     3   ar
    17     3     4   ar
    18     4     5   ar
    19     4     6    1
    20     6     7    2
    21     6     8   am
    22     8    26    1
    23    26    27    1
    24    27    28   ar
    25    28    29   ar
    26    29    30   ar
    27    30    31    1
    28    30    32   ar
    29    32    33    1
    30    32    34   ar
    31     8     9    1
    32     9    10    1
    33    17    12   ar
    34     5     1   ar
    35    34    27   ar
    36    24    20   ar
    37    10     3    1
    38    18    19    1
@<TRIPOS>MOLECULE
*****
 34 38 0 0 0
SMALL
GASTEIGER

@<TRIPOS>ATOM
      1 C         138.5656  141.6149  158.8139 C.ar    1  UNL1        0.1176
      2 C         137.5516  141.7385  157.7154 C.ar    1  UNL1        0.0981
      3 N         137.9908  142.8438  156.8014 N.ar    1  UNL1       -0.3048
      4 C         139.2762  143.4034  157.3350 C.ar    1  UNL1        0.1986
      5 N         139.6314  142.6439  158.5788 N.ar    1  UNL1       -0.2211
      6 C         139.9570  144.5323  156.6194 C.2     1  UNL1        0.2837
      7 O         141.2424  145.0919  157.1530 O.2     1  UNL1       -0.2666
      8 N         139.3526  145.1015  155.3702 N.am    1  UNL1       -0.2675
      9 C         138.0673  144.5420  154.8366 C.3     1  UNL1        0.1186
     10 C         137.3863  143.4131  155.5522 C.3     1  UNL1        0.1291
     11 C         139.6470  138.8414  158.4424 C.3     1  UNL1        0.0343
     12 C         139.0622  139.2478  159.7625 C.ar    1  UNL1        0.0166
     13 C         139.0180  138.2674  160.8970 C.ar    1  UNL1        0.0991
     14 N         138.4332  138.6738  162.2172 N.ar    1  UNL1       -0.2123
     15 C         137.8925  140.0605  162.4029 C.ar    1  UNL1        0.2218
     16 N         137.9366  141.0409  161.2684 N.ar    1  UNL1       -0.2123
     17 C         138.5215  140.6345  159.9483 C.ar    1  UNL1        0.1008
     18 N         137.3076  140.4670  163.7230 N.pl3   1  UNL1       -0.2681
     19 H         136.3706  140.7644  163.7756 H       1  UNL1        0.1565
     20 C         138.1503  140.4202  164.9630 C.ar    1  UNL1        0.1328
     21 C         138.2095  139.2894  165.9467 C.ar    1  UNL1        0.0565
     22 C         139.1776  139.6664  167.0287 C.ar    1  UNL1        0.1230
     23 N         139.7167  141.0303  166.7137 N.ar    1  UNL1       -0.1665
     24 N         139.0818  141.4962  165.4370 N.ar    1  UNL1       -0.2355
     25 C         139.3341  142.8077  164.7542 C.3     1  UNL1        0.1552
     26 C         140.0335  146.2304  154.6546 C.3     1  UNL1        0.1207
     27 C         139.6005  147.6450  154.9022 C.ar    1  UNL1        0.0001
     28 C         139.8720  148.7033  153.8744 C.ar    1  UNL1       -0.0002
     29 C         139.4389  150.1180  154.1219 C.ar    1  UNL1        0.0317
     30 C         138.7344  150.4744  155.3972 C.ar    1  UNL1        0.1674
     31 F         138.3013  151.8890  155.6448 F       1  UNL1       -0.2018
     32 C         138.4628  149.4161  156.4251 C.ar    1  UNL1        0.1671
     33 F         137.7582  149.7725  157.7005 F       1  UNL1       -0.2018
     34 C         138.8958  148.0015  156.1775 C.ar    1  UNL1        0.0294
@<TRIPOS>BOND
     1    11    12    1
     2    12    13   ar
     3    13    14   ar
     4    14    15   ar
     5    15    18    1
     6    18    20    1
     7    20    21   ar
     8    21    22   ar
     9    22    23   ar
    10    23    24   ar
    11    24    25    1
    12    15    16   ar
    13    16    17   ar
    14    17     1    1
    15     1     2   ar
    16     2     3   ar
    17     3     4   ar
    18     4     5   ar
    19     4     6    1
    20     6     7    2
    21     6     8   am
    22     8    26    1
    23    26    27    1
    24    27    28   ar
    25    28    29   ar
    26    29    30   ar
    27    30    31    1
    28    30    32   ar
    29    32    33    1
    30    32    34   ar
    31     8     9    1
    32     9    10    1
    33    17    12   ar
    34     5     1   ar
    35    34    27   ar
    36    24    20   ar
    37    10     3    1
    38    18    19    1
@<TRIPOS>MOLECULE
*****
 34 38 0 0 0
SMALL
GASTEIGER

@<TRIPOS>ATOM
      1 C         142.5932  139.4522  159.3588 C.ar    1  UNL1        0.1176
      2 C         141.1717  139.1358  158.9992 C.ar    1  UNL1        0.0981
      3 N         141.1865  138.2349  157.8000 N.ar    1  UNL1       -0.3048
      4 C         142.6171  137.9945  157.4184 C.ar    1  UNL1        0.1986
      5 N         143.4865  138.7469  158.3818 N.ar    1  UNL1       -0.2211
      6 C         142.9432  137.1216  156.2430 C.2     1  UNL1        0.2837
      7 O         144.3738  136.8812  155.8613 O.2     1  UNL1       -0.2666
      8 N         141.8388  136.4891  155.4492 N.am    1  UNL1       -0.2675
      9 C         140.4083  136.7295  155.8307 C.3     1  UNL1        0.1186
     10 C         140.0820  137.6024  157.0062 C.3     1  UNL1        0.1291
     11 C         143.8460  138.2157  161.7881 C.3     1  UNL1        0.0343
     12 C         143.6689  139.7031  161.7103 C.ar    1  UNL1        0.0166
     13 C         144.1183  140.5724  162.8472 C.ar    1  UNL1        0.0991
     14 N         143.9412  142.0599  162.7696 N.ar    1  UNL1       -0.2123
     15 C         143.3148  142.6782  161.5549 C.ar    1  UNL1        0.2218
     16 N         142.8655  141.8089  160.4180 N.ar    1  UNL1       -0.2123
     17 C         143.0425  140.3214  160.4957 C.ar    1  UNL1        0.1008
     18 N         143.1377  144.1656  161.4772 N.pl3   1  UNL1       -0.2681
     19 H         143.9240  144.7508  161.3848 H       1  UNL1        0.1565
     20 C         141.7626  144.7616  161.5402 C.ar    1  UNL1        0.1328
     21 C         140.9579  144.9924  162.7848 C.ar    1  UNL1        0.0565
     22 C         139.6488  145.6048  162.3835 C.ar    1  UNL1        0.1230
     23 N         139.6444  145.7525  160.8908 N.ar    1  UNL1       -0.1665
     24 N         140.9509  145.2313  160.3696 N.ar    1  UNL1       -0.2355
     25 C         141.3716  145.1876  158.9305 C.3     1  UNL1        0.1552
     26 C         142.1650  135.6161  154.2737 C.3     1  UNL1        0.1207
     27 C         142.0691  134.1244  154.3979 C.ar    1  UNL1        0.0001
     28 C         141.6423  133.2996  153.2200 C.ar    1  UNL1       -0.0002
     29 C         141.5463  131.8078  153.3441 C.ar    1  UNL1        0.0317
     30 C         141.8771  131.1408  154.6462 C.ar    1  UNL1        0.1674
     31 F         141.7812  129.6491  154.7704 F       1  UNL1       -0.2018
     32 C         142.3040  131.9655  155.8243 C.ar    1  UNL1        0.1671
     33 F         142.6348  131.2985  157.1265 F       1  UNL1       -0.2018
     34 C         142.3999  133.4573  155.7001 C.ar    1  UNL1        0.0294
@<TRIPOS>BOND
     1    11    12    1
     2    12    13   ar
     3    13    14   ar
     4    14    15   ar
     5    15    18    1
     6    18    20    1
     7    20    21   ar
     8    21    22   ar
     9    22    23   ar
    10    23    24   ar
    11    24    25    1
    12    15    16   ar
    13    16    17   ar
    14    17     1    1
    15     1     2   ar
    16     2     3   ar
    17     3     4   ar
    18     4     5   ar
    19     4     6    1
    20     6     7    2
    21     6     8   am
    22     8    26    1
    23    26    27    1
    24    27    28   ar
    25    28    29   ar
    26    29    30   ar
    27    30    31    1
    28    30    32   ar
    29    32    33    1
    30    32    34   ar
    31     8     9    1
    32     9    10    1
    33    17    12   ar
    34     5     1   ar
    35    34    27   ar
    36    24    20   ar
    37    10     3    1
    38    18    19    1
