@<TRIPOS>MOLECULE
*****
 25 26 0 0 0
SMALL
GASTEIGER

@<TRIPOS>ATOM
      1 C         138.0399  143.9884  163.6880 C.3     1  UNL1        0.0644
      2 N         137.5427  144.8157  162.5398 N.3     1  UNL1       -0.3215
      3 H         136.9310  144.2491  161.9523 H       1  UNL1        0.1188
      4 H         138.3357  145.1435  161.9883 H       1  UNL1        0.1188
      5 C         137.6145  142.5560  163.8200 C.3     1  UNL1        0.1011
      6 C         138.5560  139.0988  162.0087 C.3     1  UNL1        0.1700
      7 C         138.8956  137.8439  162.7570 C.3     1  UNL1        0.0726
      8 C         138.8124  138.1424  164.2246 C.3     1  UNL1        0.1834
      9 F         139.0742  137.1720  165.3380 F       1  UNL1       -0.2354
     10 C         138.4213  139.5818  164.3834 C.3     1  UNL1        0.1295
     11 N         138.2628  140.1729  163.0139 N.am    1  UNL1       -0.2656
     12 C         137.8786  141.5893  162.7039 C.2     1  UNL1        0.2278
     13 O         137.7587  142.0390  161.2780 O.2     1  UNL1       -0.2748
     14 N         138.4769  139.4063  159.0256 N.1     1  UNL1       -0.1942
     15 C         138.5164  139.2525  160.5171 C.1     1  UNL1        0.0926
     16 C         138.9626  144.5934  164.7041 C.3     1  UNL1        0.0447
     17 C         140.4129  144.2107  164.7222 C.ar    1  UNL1        0.0090
     18 C         141.4078  145.0038  163.9279 C.ar    1  UNL1        0.0300
     19 C         142.8580  144.6212  163.9460 C.ar    1  UNL1        0.1672
     20 F         143.8530  145.4143  163.1516 F       1  UNL1       -0.2018
     21 C         143.3134  143.4454  164.7585 C.ar    1  UNL1        0.1696
     22 F         144.7637  143.0627  164.7766 F       1  UNL1       -0.2017
     23 C         142.3185  142.6523  165.5529 C.ar    1  UNL1        0.0612
     24 C         140.8682  143.0349  165.5348 C.ar    1  UNL1        0.1386
     25 F         139.8733  142.2418  166.3292 F       1  UNL1       -0.2044
@<TRIPOS>BOND
     1    14    15    3
     2     6    15    1
     3     6     7    1
     4     7     8    1
     5     8     9    1
     6     8    10    1
     7    10    11    1
     8    11    12   am
     9    12    13    2
    10    12     5    1
    11     5     1    1
    12     1     2    1
    13     1    16    1
    14    16    17    1
    15    17    18   ar
    16    18    19   ar
    17    19    20    1
    18    19    21   ar
    19    21    22    1
    20    21    23   ar
    21    23    24   ar
    22    24    25    1
    23    11     6    1
    24    24    17   ar
    25     2     3    1
    26     2     4    1
@<TRIPOS>MOLECULE
*****
 25 26 0 0 0
SMALL
GASTEIGER

@<TRIPOS>ATOM
      1 C         138.2370  138.2934  166.4121 C.3     1  UNL1        0.0644
      2 N         137.1105  137.9505  167.3413 N.3     1  UNL1       -0.3215
      3 H         136.9229  138.7431  167.9552 H       1  UNL1        0.1188
      4 H         137.3681  137.1389  167.9029 H       1  UNL1        0.1188
      5 C         138.8918  139.6406  166.4924 C.3     1  UNL1        0.1011
      6 C         141.5467  141.3791  168.9518 C.3     1  UNL1        0.1700
      7 C         142.7789  142.0834  168.4667 C.3     1  UNL1        0.0726
      8 C         142.8003  142.0018  166.9691 C.3     1  UNL1        0.1834
      9 F         143.8555  142.5744  166.0698 F       1  UNL1       -0.2354
     10 C         141.5812  141.2469  166.5286 C.3     1  UNL1        0.1295
     11 N         140.8064  140.8621  167.7541 N.am    1  UNL1       -0.2656
     12 C         139.5177  140.0949  167.7776 C.2     1  UNL1        0.2278
     13 O         138.8548  139.7821  169.0863 O.2     1  UNL1       -0.2748
     14 N         140.7097  141.0604  171.8150 N.1     1  UNL1       -0.1942
     15 C         141.1282  141.2197  170.3834 C.1     1  UNL1        0.0926
     16 C         138.7087  137.2892  165.4027 C.3     1  UNL1        0.0447
     17 C         139.7911  137.6545  164.4305 C.ar    1  UNL1        0.0090
     18 C         141.1890  137.8933  164.9192 C.ar    1  UNL1        0.0300
     19 C         142.2712  138.2586  163.9470 C.ar    1  UNL1        0.1672
     20 F         143.6692  138.4974  164.4357 F       1  UNL1       -0.2018
     21 C         141.9555  138.3852  162.4860 C.ar    1  UNL1        0.1696
     22 F         143.0379  138.7506  161.5138 F       1  UNL1       -0.2017
     23 C         140.5577  138.1465  161.9973 C.ar    1  UNL1        0.0612
     24 C         139.4754  137.7811  162.9695 C.ar    1  UNL1        0.1386
     25 F         138.0775  137.5424  162.4808 F       1  UNL1       -0.2044
@<TRIPOS>BOND
     1    14    15    3
     2     6    15    1
     3     6     7    1
     4     7     8    1
     5     8     9    1
     6     8    10    1
     7    10    11    1
     8    11    12   am
     9    12    13    2
    10    12     5    1
    11     5     1    1
    12     1     2    1
    13     1    16    1
    14    16    17    1
    15    17    18   ar
    16    18    19   ar
    17    19    20    1
    18    19    21   ar
    19    21    22    1
    20    21    23   ar
    21    23    24   ar
    22    24    25    1
    23    11     6    1
    24    24    17   ar
    25     2     3    1
    26     2     4    1
@<TRIPOS>MOLECULE
*****
 25 26 0 0 0
SMALL
GASTEIGER

@<TRIPOS>ATOM
      1 C         138.0516  143.9532  163.7279 C.3     1  UNL1        0.0644
      2 N         137.5579  144.7989  162.5917 N.3     1  UNL1       -0.3215
      3 H         136.9382  144.2453  162.0000 H       1  UNL1        0.1188
      4 H         138.3518  145.1253  162.0408 H       1  UNL1        0.1188
      5 C         137.6125  142.5236  163.8447 C.3     1  UNL1        0.1011
      6 C         138.5535  139.0793  162.0085 C.3     1  UNL1        0.1700
      7 C         138.8974  137.8202  162.7477 C.3     1  UNL1        0.0726
      8 C         138.8183  138.1093  164.2175 C.3     1  UNL1        0.1834
      9 F         139.0851  137.1322  165.3239 F       1  UNL1       -0.2354
     10 C         138.4255  139.5470  164.3866 C.3     1  UNL1        0.1295
     11 N         138.2619  140.1466  163.0214 N.am    1  UNL1       -0.2656
     12 C         137.8746  141.5643  162.7217 C.2     1  UNL1        0.2278
     13 O         137.7495  142.0229  161.2990 O.2     1  UNL1       -0.2748
     14 N         138.4646  139.4057  159.0277 N.1     1  UNL1       -0.1942
     15 C         138.5091  139.2425  160.5181 C.1     1  UNL1        0.0926
     16 C         138.9843  144.5369  164.7472 C.3     1  UNL1        0.0447
     17 C         140.4401  144.1759  164.7256 C.ar    1  UNL1        0.0090
     18 C         140.9566  143.0889  165.6208 C.ar    1  UNL1        0.0300
     19 C         142.4124  142.7279  165.5991 C.ar    1  UNL1        0.1672
     20 F         142.9290  141.6408  166.4944 F       1  UNL1       -0.2018
     21 C         143.3516  143.4540  164.6822 C.ar    1  UNL1        0.1696
     22 F         144.8074  143.0930  164.6606 F       1  UNL1       -0.2017
     23 C         142.8350  144.5411  163.7870 C.ar    1  UNL1        0.0612
     24 C         141.3793  144.9020  163.8087 C.ar    1  UNL1        0.1386
     25 F         140.8627  145.9891  162.9134 F       1  UNL1       -0.2044
@<TRIPOS>BOND
     1    14    15    3
     2     6    15    1
     3     6     7    1
     4     7     8    1
     5     8     9    1
     6     8    10    1
     7    10    11    1
     8    11    12   am
     9    12    13    2
    10    12     5    1
    11     5     1    1
    12     1     2    1
    13     1    16    1
    14    16    17    1
    15    17    18   ar
    16    18    19   ar
    17    19    20    1
    18    19    21   ar
    19    21    22    1
    20    21    23   ar
    21    23    24   ar
    22    24    25    1
    23    11     6    1
    24    24    17   ar
    25     2     3    1
    26     2     4    1
@<TRIPOS>MOLECULE
*****
 25 26 0 0 0
SMALL
GASTEIGER

@<TRIPOS>ATOM
      1 C         142.1924  139.8096  165.9869 C.3     1  UNL1        0.0644
      2 N         142.1399  138.4776  165.2990 N.3     1  UNL1       -0.3215
      3 H         141.9147  138.6127  164.3134 H       1  UNL1        0.1188
      4 H         141.4231  137.8977  165.7352 H       1  UNL1        0.1188
      5 C         141.9305  141.0658  165.2101 C.3     1  UNL1        0.1011
      6 C         138.4801  142.5691  163.8121 C.3     1  UNL1        0.1700
      7 C         137.8480  143.8176  164.3522 C.3     1  UNL1        0.0726
      8 C         138.7245  144.3434  165.4501 C.3     1  UNL1        0.1834
      9 F         138.4716  145.5762  166.2663 F       1  UNL1       -0.2354
     10 C         139.8983  143.4198  165.5885 C.3     1  UNL1        0.1295
     11 N         139.7473  142.3233  164.5761 N.am    1  UNL1       -0.2656
     12 C         140.6967  141.1814  164.3649 C.2     1  UNL1        0.2278
     13 O         140.4123  140.1552  163.3085 O.2     1  UNL1       -0.2748
     14 N         137.3996  140.8635  161.5933 N.1     1  UNL1       -0.1942
     15 C         137.9398  141.7163  162.7027 C.1     1  UNL1        0.0926
     16 C         142.5068  139.8853  167.4516 C.3     1  UNL1        0.0447
     17 C         141.6739  140.7468  168.3539 C.ar    1  UNL1        0.0090
     18 C         140.3484  140.2507  168.8508 C.ar    1  UNL1        0.0300
     19 C         139.5156  141.1122  169.7531 C.ar    1  UNL1        0.1672
     20 F         138.1900  140.6162  170.2501 F       1  UNL1       -0.2018
     21 C         140.0082  142.4698  170.1585 C.ar    1  UNL1        0.1696
     22 F         139.1753  143.3313  171.0609 F       1  UNL1       -0.2017
     23 C         141.3337  142.9658  169.6616 C.ar    1  UNL1        0.0612
     24 C         142.1665  142.1044  168.7593 C.ar    1  UNL1        0.1386
     25 F         143.4921  142.6004  168.2624 F       1  UNL1       -0.2044
@<TRIPOS>BOND
     1    14    15    3
     2     6    15    1
     3     6     7    1
     4     7     8    1
     5     8     9    1
     6     8    10    1
     7    10    11    1
     8    11    12   am
     9    12    13    2
    10    12     5    1
    11     5     1    1
    12     1     2    1
    13     1    16    1
    14    16    17    1
    15    17    18   ar
    16    18    19   ar
    17    19    20    1
    18    19    21   ar
    19    21    22    1
    20    21    23   ar
    21    23    24   ar
    22    24    25    1
    23    11     6    1
    24    24    17   ar
    25     2     3    1
    26     2     4    1
@<TRIPOS>MOLECULE
*****
 25 26 0 0 0
SMALL
GASTEIGER

@<TRIPOS>ATOM
      1 C         139.5649  139.9896  166.6695 C.3     1  UNL1        0.0644
      2 N         138.4858  139.1857  166.0068 N.3     1  UNL1       -0.3215
      3 H         138.5376  139.3148  164.9963 H       1  UNL1        0.1188
      4 H         137.5746  139.4972  166.3430 H       1  UNL1        0.1188
      5 C         140.5049  140.8121  165.8388 C.3     1  UNL1        0.1011
      6 C         140.4943  144.2145  163.7074 C.3     1  UNL1        0.1700
      7 C         141.7089  145.0759  163.5268 C.3     1  UNL1        0.0726
      8 C         142.8465  144.4337  164.2641 C.3     1  UNL1        0.1834
      9 F         144.2493  144.9578  164.3500 F       1  UNL1       -0.2354
     10 C         142.3348  143.1753  164.9003 C.3     1  UNL1        0.1295
     11 N         140.8811  143.0399  164.5562 N.am    1  UNL1       -0.2656
     12 C         139.9736  141.9255  164.9856 C.2     1  UNL1        0.2278
     13 O         138.5347  141.9245  164.5619 O.2     1  UNL1       -0.2748
     14 N         137.7697  144.7474  162.5704 N.1     1  UNL1       -0.1942
     15 C         139.1320  144.4809  163.1389 C.1     1  UNL1        0.0926
     16 C         139.7041  139.9710  168.1629 C.3     1  UNL1        0.0447
     17 C         140.6467  140.9212  168.8403 C.ar    1  UNL1        0.0090
     18 C         140.2135  142.3273  169.1316 C.ar    1  UNL1        0.0300
     19 C         141.1561  143.2774  169.8089 C.ar    1  UNL1        0.1672
     20 F         140.7229  144.6837  170.1002 F       1  UNL1       -0.2018
     21 C         142.5320  142.8213  170.1949 C.ar    1  UNL1        0.1696
     22 F         143.4746  143.7714  170.8722 F       1  UNL1       -0.2017
     23 C         142.9652  141.4151  169.9035 C.ar    1  UNL1        0.0612
     24 C         142.0226  140.4650  169.2262 C.ar    1  UNL1        0.1386
     25 F         142.4558  139.0588  168.9349 F       1  UNL1       -0.2044
@<TRIPOS>BOND
     1    14    15    3
     2     6    15    1
     3     6     7    1
     4     7     8    1
     5     8     9    1
     6     8    10    1
     7    10    11    1
     8    11    12   am
     9    12    13    2
    10    12     5    1
    11     5     1    1
    12     1     2    1
    13     1    16    1
    14    16    17    1
    15    17    18   ar
    16    18    19   ar
    17    19    20    1
    18    19    21   ar
    19    21    22    1
    20    21    23   ar
    21    23    24   ar
    22    24    25    1
    23    11     6    1
    24    24    17   ar
    25     2     3    1
    26     2     4    1
@<TRIPOS>MOLECULE
*****
 25 26 0 0 0
SMALL
GASTEIGER

@<TRIPOS>ATOM
      1 C         145.0892  141.7415  164.0953 C.3     1  UNL1        0.0644
      2 N         146.1797  141.9032  163.0781 N.3     1  UNL1       -0.3215
      3 H         146.3660  141.0043  162.6336 H       1  UNL1        0.1188
      4 H         147.0267  142.2372  163.5379 H       1  UNL1        0.1188
      5 C         144.4618  140.3968  164.3149 C.3     1  UNL1        0.1011
      6 C         142.0025  137.9581  162.2840 C.3     1  UNL1        0.1700
      7 C         140.8375  137.2540  162.9140 C.3     1  UNL1        0.0726
      8 C         140.7957  137.6335  164.3646 C.3     1  UNL1        0.1834
      9 F         139.7911  137.1578  165.3718 F       1  UNL1       -0.2354
     10 C         141.9350  138.5721  164.6312 C.3     1  UNL1        0.1295
     11 N         142.6808  138.7728  163.3453 N.am    1  UNL1       -0.2656
     12 C         143.8922  139.6364  163.1542 C.2     1  UNL1        0.2278
     13 O         144.5341  139.7396  161.8024 O.2     1  UNL1       -0.2748
     14 N         142.8306  137.7701  159.4067 N.1     1  UNL1       -0.1942
     15 C         142.4165  137.8641  160.8454 C.1     1  UNL1        0.0926
     16 C         144.6262  142.9244  164.8930 C.3     1  UNL1        0.0447
     17 C         143.2620  143.5015  164.6557 C.ar    1  UNL1        0.0090
     18 C         142.0693  142.9187  165.3542 C.ar    1  UNL1        0.0300
     19 C         140.7053  143.4958  165.1169 C.ar    1  UNL1        0.1672
     20 F         139.5125  142.9130  165.8154 F       1  UNL1       -0.2018
     21 C         140.5339  144.6556  164.1812 C.ar    1  UNL1        0.1696
     22 F         139.1698  145.2326  163.9440 F       1  UNL1       -0.2017
     23 C         141.7266  145.2383  163.4828 C.ar    1  UNL1        0.0612
     24 C         143.0906  144.6613  163.7200 C.ar    1  UNL1        0.1386
     25 F         144.2834  145.2440  163.0215 F       1  UNL1       -0.2044
@<TRIPOS>BOND
     1    14    15    3
     2     6    15    1
     3     6     7    1
     4     7     8    1
     5     8     9    1
     6     8    10    1
     7    10    11    1
     8    11    12   am
     9    12    13    2
    10    12     5    1
    11     5     1    1
    12     1     2    1
    13     1    16    1
    14    16    17    1
    15    17    18   ar
    16    18    19   ar
    17    19    20    1
    18    19    21   ar
    19    21    22    1
    20    21    23   ar
    21    23    24   ar
    22    24    25    1
    23    11     6    1
    24    24    17   ar
    25     2     3    1
    26     2     4    1
@<TRIPOS>MOLECULE
*****
 25 26 0 0 0
SMALL
GASTEIGER

@<TRIPOS>ATOM
      1 C         137.8669  141.0696  164.2014 C.3     1  UNL1        0.0644
      2 N         136.8352  141.2110  163.1218 N.3     1  UNL1       -0.3215
      3 H         136.6836  142.2000  162.9238 H       1  UNL1        0.1188
      4 H         135.9598  140.7880  163.4306 H       1  UNL1        0.1188
      5 C         138.4940  142.2916  164.8043 C.3     1  UNL1        0.1011
      6 C         140.9226  144.9892  163.0882 C.3     1  UNL1        0.1700
      7 C         142.3886  145.0862  163.3907 C.3     1  UNL1        0.0726
      8 C         142.7241  144.0304  164.4020 C.3     1  UNL1        0.1834
      9 F         144.0801  143.7699  164.9880 F       1  UNL1       -0.2354
     10 C         141.4654  143.2809  164.7246 C.3     1  UNL1        0.1295
     11 N         140.3521  143.8735  163.9126 N.am    1  UNL1       -0.2656
     12 C         138.9197  143.4285  163.9231 C.2     1  UNL1        0.2278
     13 O         137.9129  144.1202  163.0526 O.2     1  UNL1       -0.2748
     14 N         139.3993  146.7223  161.1710 N.1     1  UNL1       -0.1942
     15 C         140.1609  145.8558  162.1296 C.1     1  UNL1        0.0926
     16 C         138.2716  139.7061  164.6781 C.3     1  UNL1        0.0447
     17 C         139.7143  139.4081  164.9611 C.ar    1  UNL1        0.0090
     18 C         140.5836  138.8226  163.8880 C.ar    1  UNL1        0.0300
     19 C         142.0261  138.5246  164.1709 C.ar    1  UNL1        0.1672
     20 F         142.8955  137.9391  163.0979 F       1  UNL1       -0.2018
     21 C         142.5994  138.8121  165.5269 C.ar    1  UNL1        0.1696
     22 F         144.0421  138.5141  165.8099 F       1  UNL1       -0.2017
     23 C         141.7301  139.3976  166.6000 C.ar    1  UNL1        0.0612
     24 C         140.2875  139.6956  166.3170 C.ar    1  UNL1        0.1386
     25 F         139.4182  140.2811  167.3901 F       1  UNL1       -0.2044
@<TRIPOS>BOND
     1    14    15    3
     2     6    15    1
     3     6     7    1
     4     7     8    1
     5     8     9    1
     6     8    10    1
     7    10    11    1
     8    11    12   am
     9    12    13    2
    10    12     5    1
    11     5     1    1
    12     1     2    1
    13     1    16    1
    14    16    17    1
    15    17    18   ar
    16    18    19   ar
    17    19    20    1
    18    19    21   ar
    19    21    22    1
    20    21    23   ar
    21    23    24   ar
    22    24    25    1
    23    11     6    1
    24    24    17   ar
    25     2     3    1
    26     2     4    1
@<TRIPOS>MOLECULE
*****
 25 26 0 0 0
SMALL
GASTEIGER

@<TRIPOS>ATOM
      1 C         145.2291  141.4373  163.8556 C.3     1  UNL1        0.0644
      2 N         146.3598  141.8464  162.9590 N.3     1  UNL1       -0.3215
      3 H         146.2656  142.8340  162.7220 H       1  UNL1        0.1188
      4 H         146.3361  141.2882  162.1056 H       1  UNL1        0.1188
      5 C         144.1902  142.4416  164.2584 C.3     1  UNL1        0.1011
      6 C         141.1381  144.4474  162.5907 C.3     1  UNL1        0.1700
      7 C         139.8808  144.7962  163.3307 C.3     1  UNL1        0.0726
      8 C         140.0050  144.2693  164.7296 C.3     1  UNL1        0.1834
      9 F         138.9758  144.3948  165.8136 F       1  UNL1       -0.2354
     10 C         141.3389  143.5948  164.8541 C.3     1  UNL1        0.1295
     11 N         142.0393  143.7049  163.5322 N.am    1  UNL1       -0.2656
     12 C         143.4015  143.1669  163.2087 C.2     1  UNL1        0.2278
     13 O         143.9752  143.3543  161.8354 O.2     1  UNL1       -0.2748
     14 N         141.7439  145.1173  159.7299 N.1     1  UNL1       -0.1942
     15 C         141.4410  144.7823  161.1603 C.1     1  UNL1        0.0926
     16 C         145.1372  140.0239  164.3496 C.3     1  UNL1        0.0447
     17 C         143.9046  139.2132  164.0782 C.ar    1  UNL1        0.0090
     18 C         143.5590  138.8215  162.6722 C.ar    1  UNL1        0.0300
     19 C         142.3265  138.0109  162.4009 C.ar    1  UNL1        0.1672
     20 F         141.9808  137.6191  160.9948 F       1  UNL1       -0.2018
     21 C         141.4396  137.5919  163.5357 C.ar    1  UNL1        0.1696
     22 F         140.2070  136.7812  163.2644 F       1  UNL1       -0.2017
     23 C         141.7852  137.9836  164.9418 C.ar    1  UNL1        0.0612
     24 C         143.0177  138.7943  165.2131 C.ar    1  UNL1        0.1386
     25 F         143.3634  139.1860  166.6192 F       1  UNL1       -0.2044
@<TRIPOS>BOND
     1    14    15    3
     2     6    15    1
     3     6     7    1
     4     7     8    1
     5     8     9    1
     6     8    10    1
     7    10    11    1
     8    11    12   am
     9    12    13    2
    10    12     5    1
    11     5     1    1
    12     1     2    1
    13     1    16    1
    14    16    17    1
    15    17    18   ar
    16    18    19   ar
    17    19    20    1
    18    19    21   ar
    19    21    22    1
    20    21    23   ar
    21    23    24   ar
    22    24    25    1
    23    11     6    1
    24    24    17   ar
    25     2     3    1
    26     2     4    1
@<TRIPOS>MOLECULE
*****
 25 26 0 0 0
SMALL
GASTEIGER

@<TRIPOS>ATOM
      1 C         137.9316  142.4979  163.2500 C.3     1  UNL1        0.0644
      2 N         137.5986  143.3324  162.0489 N.3     1  UNL1       -0.3215
      3 H         138.0505  144.2431  162.1317 H       1  UNL1        0.1188
      4 H         136.5880  143.4582  161.9919 H       1  UNL1        0.1188
      5 C         138.8105  143.0553  164.3302 C.3     1  UNL1        0.1011
      6 C         142.7935  143.2563  164.7939 C.3     1  UNL1        0.1700
      7 C         143.5184  142.6444  165.9558 C.3     1  UNL1        0.0726
      8 C         142.5021  141.9882  166.8427 C.3     1  UNL1        0.1834
      9 F         142.7884  141.2545  168.1193 F       1  UNL1       -0.2354
     10 C         141.1491  142.1946  166.2288 C.3     1  UNL1        0.1295
     11 N         141.3292  142.9783  164.9626 N.am    1  UNL1       -0.2656
     12 C         140.2369  143.4085  164.0290 C.2     1  UNL1        0.2278
     13 O         140.5708  144.1918  162.7942 O.2     1  UNL1       -0.2748
     14 N         144.0516  144.7702  162.5300 N.1     1  UNL1       -0.1942
     15 C         143.4226  144.0132  163.6619 C.1     1  UNL1        0.0926
     16 C         137.3858  141.1060  163.3709 C.3     1  UNL1        0.0447
     17 C         138.3228  139.9376  163.4548 C.ar    1  UNL1        0.0090
     18 C         139.0935  139.5056  162.2426 C.ar    1  UNL1        0.0300
     19 C         140.0304  138.3373  162.3266 C.ar    1  UNL1        0.1672
     20 F         140.8012  137.9053  161.1144 F       1  UNL1       -0.2018
     21 C         140.1966  137.6009  163.6228 C.ar    1  UNL1        0.1696
     22 F         141.1336  136.4325  163.7067 F       1  UNL1       -0.2017
     23 C         139.4259  138.0328  164.8350 C.ar    1  UNL1        0.0612
     24 C         138.4890  139.2011  164.7510 C.ar    1  UNL1        0.1386
     25 F         137.7182  139.6331  165.9632 F       1  UNL1       -0.2044
@<TRIPOS>BOND
     1    14    15    3
     2     6    15    1
     3     6     7    1
     4     7     8    1
     5     8     9    1
     6     8    10    1
     7    10    11    1
     8    11    12   am
     9    12    13    2
    10    12     5    1
    11     5     1    1
    12     1     2    1
    13     1    16    1
    14    16    17    1
    15    17    18   ar
    16    18    19   ar
    17    19    20    1
    18    19    21   ar
    19    21    22    1
    20    21    23   ar
    21    23    24   ar
    22    24    25    1
    23    11     6    1
    24    24    17   ar
    25     2     3    1
    26     2     4    1
