@<TRIPOS>MOLECULE
*****
 38 42 0 0 0
SMALL
GASTEIGER

@<TRIPOS>ATOM
      1 C         139.3936  139.0926  160.2832 C.ar    1  UNL1        0.0000
      2 C         140.6144  138.6062  159.5600 C.ar    1  UNL1        0.0000
      3 N         140.3544  138.7151  158.0867 N.ar    1  UNL1        0.0000
      4 N         138.9730  139.2687  157.8994 N.ar    1  UNL1        0.0000
      5 N         138.3792  139.5021  159.2570 N.ar    1  UNL1        0.0000
      6 C         141.3083  138.3367  156.9926 C.3     1  UNL1        0.0000
      7 C         141.4878  136.8647  156.7660 C.3     1  UNL1        0.0000
      8 C         142.3600  136.1728  155.7606 C.3     1  UNL1        0.0000
      9 C         143.2678  136.7819  154.7337 C.3     1  UNL1        0.0000
     10 C         143.5279  138.2333  154.4583 C.3     1  UNL1        0.0000
     11 N         142.9443  139.4341  155.1420 N.am    1  UNL1        0.0000
     12 C         141.9564  139.4800  156.2699 C.2     1  UNL1        0.0000
     13 O         141.5650  140.8508  156.7368 O.2     1  UNL1        0.0000
     14 SI        142.3187  134.6736  155.7857 Si      1  UNL1        0.0000
     15 C         141.2129  134.6873  154.7722 C.3     1  UNL1        0.0000
     16 C         143.4244  134.6600  156.7991 C.3     1  UNL1        0.0000
     17 C         142.2773  133.1744  155.8107 C.3     1  UNL1        0.0000
     18 C         143.4100  140.7649  154.6302 C.3     1  UNL1        0.0000
     19 C         144.7803  141.2651  154.9798 C.ar    1  UNL1        0.0000
     20 C         145.8179  141.4212  153.9077 C.ar    1  UNL1        0.0000
     21 C         147.1881  141.9214  154.2573 C.ar    1  UNL1        0.0000
     22 C         147.5208  142.2655  155.6788 C.ar    1  UNL1        0.0000
     23 C         146.4833  142.1094  156.7508 C.ar    1  UNL1        0.0000
     24 C         145.1131  141.6092  156.4013 C.ar    1  UNL1        0.0000
     25 C         138.6035  140.5028  163.9078 C.ar    1  UNL1        0.0000
     26 C         138.7789  140.4375  162.4195 C.ar    1  UNL1        0.0000
     27 C         139.2182  139.1580  161.7715 C.ar    1  UNL1        0.0000
     28 C         139.4820  137.9437  162.6119 C.ar    1  UNL1        0.0000
     29 C         139.3066  138.0091  164.1001 C.ar    1  UNL1        0.0000
     30 C         138.8674  139.2886  164.7481 C.ar    1  UNL1        0.0000
     31 N         138.6920  139.3539  166.2364 N.ar    1  UNL1        0.0000
     32 C         137.6432  138.6360  167.0329 C.ar    1  UNL1        0.0000
     33 N         137.8377  138.9870  168.4783 N.ar    1  UNL1        0.0000
     34 C         139.0067  139.9218  168.5749 C.ar    1  UNL1        0.0000
     35 C         139.5521  140.5242  169.8359 C.3     1  UNL1        0.0000
     36 C         139.5348  140.1487  167.1894 C.ar    1  UNL1        0.0000
     37 C         137.7472  142.9476  163.7083 C.3     1  UNL1        0.0000
     38 O         138.1643  141.7823  164.5558 O.3     1  UNL1        0.0000
@<TRIPOS>BOND
     1    37    38    1
     2    38    25    1
     3    25    26   ar
     4    26    27   ar
     5    27     1    1
     6     1     2   ar
     7     2     3   ar
     8     6     3    1
     9     6     7    1
    10     7     8    1
    11     8    14    1
    12    14    15    1
    13    14    16    1
    14    14    17    1
    15     8     9    1
    16     9    10    1
    17    10    11    1
    18    11    18    1
    19    18    19    1
    20    19    20   ar
    21    20    21   ar
    22    21    22   ar
    23    22    23   ar
    24    23    24   ar
    25    11    12   am
    26    12    13    2
    27     3     4   ar
    28     4     5   ar
    29    27    28   ar
    30    28    29   ar
    31    29    30   ar
    32    30    31    1
    33    31    32   ar
    34    32    33   ar
    35    33    34   ar
    36    34    35    1
    37    34    36   ar
    38    30    25   ar
    39    36    31   ar
    40     5     1   ar
    41    12     6    1
    42    24    19   ar
@<TRIPOS>MOLECULE
*****
 38 42 0 0 0
SMALL
GASTEIGER

@<TRIPOS>ATOM
      1 C         143.0701  138.5852  159.5638 C.ar    1  UNL1        0.0000
      2 C         142.2393  137.6636  158.7209 C.ar    1  UNL1        0.0000
      3 N         142.5717  137.9257  157.2819 N.ar    1  UNL1        0.0000
      4 N         143.6079  139.0093  157.2354 N.ar    1  UNL1        0.0000
      5 N         143.9159  139.4169  158.6458 N.ar    1  UNL1        0.0000
      6 C         141.9731  137.2270  156.0972 C.3     1  UNL1        0.0000
      7 C         140.8783  137.9688  155.3890 C.3     1  UNL1        0.0000
      8 C         140.0884  137.5456  154.1860 C.3     1  UNL1        0.0000
      9 C         140.1982  136.2765  153.3943 C.3     1  UNL1        0.0000
     10 C         141.1249  135.1168  153.6098 C.3     1  UNL1        0.0000
     11 N         142.1708  134.9400  154.6704 N.am    1  UNL1        0.0000
     12 C         142.5482  135.8792  155.7774 C.2     1  UNL1        0.0000
     13 O         143.6460  135.4082  156.6845 O.2     1  UNL1        0.0000
     14 SI        139.0517  138.5208  153.7123 Si      1  UNL1        0.0000
     15 C         138.0298  137.8603  154.5896 C.3     1  UNL1        0.0000
     16 C         140.0736  139.1811  152.8351 C.3     1  UNL1        0.0000
     17 C         138.0150  139.4958  153.2387 C.3     1  UNL1        0.0000
     18 C         142.9410  133.6540  154.6169 C.3     1  UNL1        0.0000
     19 C         142.2481  132.3801  154.2334 C.ar    1  UNL1        0.0000
     20 C         141.1604  131.8262  155.1053 C.ar    1  UNL1        0.0000
     21 C         140.4675  130.5523  154.7218 C.ar    1  UNL1        0.0000
     22 C         140.8622  129.8324  153.4665 C.ar    1  UNL1        0.0000
     23 C         141.9499  130.3863  152.5947 C.ar    1  UNL1        0.0000
     24 C         142.6428  131.6602  152.9781 C.ar    1  UNL1        0.0000
     25 C         144.1807  139.3931  163.2873 C.ar    1  UNL1        0.0000
     26 C         144.1937  139.3167  161.7892 C.ar    1  UNL1        0.0000
     27 C         143.0572  138.6616  161.0619 C.ar    1  UNL1        0.0000
     28 C         141.9077  138.0829  161.8325 C.ar    1  UNL1        0.0000
     29 C         141.8947  138.1593  163.3304 C.ar    1  UNL1        0.0000
     30 C         143.0313  138.8144  164.0579 C.ar    1  UNL1        0.0000
     31 N         143.0183  138.8907  165.5558 N.ar    1  UNL1        0.0000
     32 C         143.7516  137.9763  166.4917 C.ar    1  UNL1        0.0000
     33 N         143.4561  138.4154  167.8953 N.ar    1  UNL1        0.0000
     34 C         142.5402  139.6012  167.8268 C.ar    1  UNL1        0.0000
     35 C         141.9912  140.3601  168.9985 C.3     1  UNL1        0.0000
     36 C         142.2695  139.8951  166.3810 C.ar    1  UNL1        0.0000
     37 C         145.5233  141.5300  163.9050 C.3     1  UNL1        0.0000
     38 O         145.3172  140.0482  164.0148 O.3     1  UNL1        0.0000
@<TRIPOS>BOND
     1    37    38    1
     2    38    25    1
     3    25    26   ar
     4    26    27   ar
     5    27     1    1
     6     1     2   ar
     7     2     3   ar
     8     6     3    1
     9     6     7    1
    10     7     8    1
    11     8    14    1
    12    14    15    1
    13    14    16    1
    14    14    17    1
    15     8     9    1
    16     9    10    1
    17    10    11    1
    18    11    18    1
    19    18    19    1
    20    19    20   ar
    21    20    21   ar
    22    21    22   ar
    23    22    23   ar
    24    23    24   ar
    25    11    12   am
    26    12    13    2
    27     3     4   ar
    28     4     5   ar
    29    27    28   ar
    30    28    29   ar
    31    29    30   ar
    32    30    31    1
    33    31    32   ar
    34    32    33   ar
    35    33    34   ar
    36    34    35    1
    37    34    36   ar
    38    30    25   ar
    39    36    31   ar
    40     5     1   ar
    41    12     6    1
    42    24    19   ar
@<TRIPOS>MOLECULE
*****
 38 42 0 0 0
SMALL
GASTEIGER

@<TRIPOS>ATOM
      1 C         142.3522  138.8592  159.8113 C.ar    1  UNL1        0.0000
      2 C         141.2603  139.5340  160.5873 C.ar    1  UNL1        0.0000
      3 N         141.8792  140.1830  161.7897 N.ar    1  UNL1        0.0000
      4 N         143.3536  139.9093  161.7568 N.ar    1  UNL1        0.0000
      5 N         143.6460  139.0911  160.5340 N.ar    1  UNL1        0.0000
      6 C         141.1515  140.9680  162.8406 C.3     1  UNL1        0.0000
      7 C         140.8866  142.4072  162.5111 C.3     1  UNL1        0.0000
      8 C         140.1897  143.4439  163.3417 C.3     1  UNL1        0.0000
      9 C         139.5857  143.2973  164.7067 C.3     1  UNL1        0.0000
     10 C         139.5293  142.0780  165.5786 C.3     1  UNL1        0.0000
     11 N         140.0630  140.7040  165.3005 N.am    1  UNL1        0.0000
     12 C         140.7850  140.2101  164.0820 C.2     1  UNL1        0.0000
     13 O         141.1946  138.7673  164.1084 O.2     1  UNL1        0.0000
     14 SI        140.0828  144.8073  162.7255 Si      1  UNL1        0.0000
     15 C         141.4557  145.1422  163.2287 C.3     1  UNL1        0.0000
     16 C         138.7101  144.4724  162.2224 C.3     1  UNL1        0.0000
     17 C         139.9760  146.1707  162.1094 C.3     1  UNL1        0.0000
     18 C         139.8461  139.6899  166.3842 C.3     1  UNL1        0.0000
     19 C         140.4140  139.9220  167.7531 C.ar    1  UNL1        0.0000
     20 C         141.8960  139.8469  167.9729 C.ar    1  UNL1        0.0000
     21 C         142.4638  140.0790  169.3417 C.ar    1  UNL1        0.0000
     22 C         141.5497  140.3860  170.4907 C.ar    1  UNL1        0.0000
     23 C         140.0679  140.4610  170.2709 C.ar    1  UNL1        0.0000
     24 C         139.4999  140.2290  168.9021 C.ar    1  UNL1        0.0000
     25 C         142.8820  136.1303  156.9788 C.ar    1  UNL1        0.0000
     26 C         143.0539  136.9016  158.2539 C.ar    1  UNL1        0.0000
     27 C         142.1805  138.0879  158.5363 C.ar    1  UNL1        0.0000
     28 C         141.1352  138.5030  157.5437 C.ar    1  UNL1        0.0000
     29 C         140.9634  137.7317  156.2687 C.ar    1  UNL1        0.0000
     30 C         141.8368  136.5453  155.9863 C.ar    1  UNL1        0.0000
     31 N         141.6650  135.7741  154.7113 N.ar    1  UNL1        0.0000
     32 C         141.9031  136.2968  153.3257 C.ar    1  UNL1        0.0000
     33 N         141.6101  135.1905  152.3561 N.ar    1  UNL1        0.0000
     34 C         141.1908  133.9840  153.1425 C.ar    1  UNL1        0.0000
     35 C         140.8053  132.6507  152.5733 C.3     1  UNL1        0.0000
     36 C         141.2247  134.3446  154.5981 C.ar    1  UNL1        0.0000
     37 C         143.6925  133.7376  157.5856 C.3     1  UNL1        0.0000
     38 O         143.7555  134.9440  156.6964 O.3     1  UNL1        0.0000
@<TRIPOS>BOND
     1    37    38    1
     2    38    25    1
     3    25    26   ar
     4    26    27   ar
     5    27     1    1
     6     1     2   ar
     7     2     3   ar
     8     6     3    1
     9     6     7    1
    10     7     8    1
    11     8    14    1
    12    14    15    1
    13    14    16    1
    14    14    17    1
    15     8     9    1
    16     9    10    1
    17    10    11    1
    18    11    18    1
    19    18    19    1
    20    19    20   ar
    21    20    21   ar
    22    21    22   ar
    23    22    23   ar
    24    23    24   ar
    25    11    12   am
    26    12    13    2
    27     3     4   ar
    28     4     5   ar
    29    27    28   ar
    30    28    29   ar
    31    29    30   ar
    32    30    31    1
    33    31    32   ar
    34    32    33   ar
    35    33    34   ar
    36    34    35    1
    37    34    36   ar
    38    30    25   ar
    39    36    31   ar
    40     5     1   ar
    41    12     6    1
    42    24    19   ar
@<TRIPOS>MOLECULE
*****
 38 42 0 0 0
SMALL
GASTEIGER

@<TRIPOS>ATOM
      1 C         141.3474  140.6892  160.9752 C.ar    1  UNL1        0.0000
      2 C         142.5527  140.2124  160.2203 C.ar    1  UNL1        0.0000
      3 N         142.3477  140.5333  158.7694 N.ar    1  UNL1        0.0000
      4 N         141.0157  141.2084  158.6277 N.ar    1  UNL1        0.0000
      5 N         140.3975  141.3048  159.9911 N.ar    1  UNL1        0.0000
      6 C         143.3063  140.2321  157.6557 C.3     1  UNL1        0.0000
      7 C         142.9677  139.0401  156.8102 C.3     1  UNL1        0.0000
      8 C         143.7159  138.4843  155.6349 C.3     1  UNL1        0.0000
      9 C         144.9873  138.9831  155.0149 C.3     1  UNL1        0.0000
     10 C         145.8247  140.1609  155.4168 C.3     1  UNL1        0.0000
     11 N         145.5974  141.1308  156.5382 N.am    1  UNL1        0.0000
     12 C         144.4765  141.1624  157.5346 C.2     1  UNL1        0.0000
     13 O         144.5335  142.2712  158.5433 O.2     1  UNL1        0.0000
     14 SI        143.1128  137.2689  154.9952 Si      1  UNL1        0.0000
     15 C         144.0599  136.3950  155.7629 C.3     1  UNL1        0.0000
     16 C         142.1658  138.1428  154.2275 C.3     1  UNL1        0.0000
     17 C         142.5098  136.0536  154.3556 C.3     1  UNL1        0.0000
     18 C         146.6270  142.2120  156.6823 C.3     1  UNL1        0.0000
     19 C         147.6096  142.4641  155.5773 C.ar    1  UNL1        0.0000
     20 C         147.2734  143.4310  154.4808 C.ar    1  UNL1        0.0000
     21 C         148.2559  143.6830  153.3759 C.ar    1  UNL1        0.0000
     22 C         149.5746  142.9682  153.3673 C.ar    1  UNL1        0.0000
     23 C         149.9108  142.0014  154.4637 C.ar    1  UNL1        0.0000
     24 C         148.9283  141.7493  155.5688 C.ar    1  UNL1        0.0000
     25 C         141.5884  139.3587  164.7065 C.ar    1  UNL1        0.0000
     26 C         141.8056  139.4767  163.2269 C.ar    1  UNL1        0.0000
     27 C         141.1303  140.5711  162.4548 C.ar    1  UNL1        0.0000
     28 C         140.2377  141.5474  163.1621 C.ar    1  UNL1        0.0000
     29 C         140.0206  141.4293  164.6415 C.ar    1  UNL1        0.0000
     30 C         140.6959  140.3349  165.4138 C.ar    1  UNL1        0.0000
     31 N         140.4787  140.2169  166.8932 N.ar    1  UNL1        0.0000
     32 C         139.2387  139.7052  167.5643 C.ar    1  UNL1        0.0000
     33 N         139.4571  139.7619  169.0473 N.ar    1  UNL1        0.0000
     34 C         140.8321  140.3087  169.2926 C.ar    1  UNL1        0.0000
     35 C         141.4647  140.5346  170.6339 C.3     1  UNL1        0.0000
     36 C         141.4636  140.5899  167.9615 C.ar    1  UNL1        0.0000
     37 C         143.6858  138.4299  165.9266 C.3     1  UNL1        0.0000
     38 O         142.2638  138.2643  165.4787 O.3     1  UNL1        0.0000
@<TRIPOS>BOND
     1    37    38    1
     2    38    25    1
     3    25    26   ar
     4    26    27   ar
     5    27     1    1
     6     1     2   ar
     7     2     3   ar
     8     6     3    1
     9     6     7    1
    10     7     8    1
    11     8    14    1
    12    14    15    1
    13    14    16    1
    14    14    17    1
    15     8     9    1
    16     9    10    1
    17    10    11    1
    18    11    18    1
    19    18    19    1
    20    19    20   ar
    21    20    21   ar
    22    21    22   ar
    23    22    23   ar
    24    23    24   ar
    25    11    12   am
    26    12    13    2
    27     3     4   ar
    28     4     5   ar
    29    27    28   ar
    30    28    29   ar
    31    29    30   ar
    32    30    31    1
    33    31    32   ar
    34    32    33   ar
    35    33    34   ar
    36    34    35    1
    37    34    36   ar
    38    30    25   ar
    39    36    31   ar
    40     5     1   ar
    41    12     6    1
    42    24    19   ar
@<TRIPOS>MOLECULE
*****
 38 42 0 0 0
SMALL
GASTEIGER

@<TRIPOS>ATOM
      1 C         139.1060  139.4483  159.8531 C.ar    1  UNL1        0.0000
      2 C         140.2990  139.0361  159.0427 C.ar    1  UNL1        0.0000
      3 N         139.9582  139.2142  157.5928 N.ar    1  UNL1        0.0000
      4 N         138.5547  139.7365  157.5072 N.ar    1  UNL1        0.0000
      5 N         138.0280  139.8811  158.9042 N.ar    1  UNL1        0.0000
      6 C         140.8622  138.9215  156.4321 C.3     1  UNL1        0.0000
      7 C         141.9611  139.9150  156.1964 C.3     1  UNL1        0.0000
      8 C         143.0171  139.9064  155.1310 C.3     1  UNL1        0.0000
      9 C         143.2348  138.9023  154.0383 C.3     1  UNL1        0.0000
     10 C         142.4506  137.6587  153.7409 C.3     1  UNL1        0.0000
     11 N         141.2548  137.1121  154.4630 N.am    1  UNL1        0.0000
     12 C         140.5479  137.6742  155.6607 C.2     1  UNL1        0.0000
     13 O         139.3711  136.8844  156.1518 O.2     1  UNL1        0.0000
     14 SI        143.9828  141.0537  155.1627 Si      1  UNL1        0.0000
     15 C         144.8983  140.2586  156.0457 C.3     1  UNL1        0.0000
     16 C         143.0674  141.8488  154.2797 C.3     1  UNL1        0.0000
     17 C         144.9486  142.2010  155.1944 C.3     1  UNL1        0.0000
     18 C         140.6914  135.8346  153.9148 C.3     1  UNL1        0.0000
     19 C         141.3982  134.5353  154.1642 C.ar    1  UNL1        0.0000
     20 C         141.7427  134.1257  155.5655 C.ar    1  UNL1        0.0000
     21 C         142.4495  132.8264  155.8148 C.ar    1  UNL1        0.0000
     22 C         142.8118  131.9367  154.6628 C.ar    1  UNL1        0.0000
     23 C         142.4673  132.3462  153.2616 C.ar    1  UNL1        0.0000
     24 C         141.7605  133.6455  153.0122 C.ar    1  UNL1        0.0000
     25 C         138.4959  140.6506  163.5858 C.ar    1  UNL1        0.0000
     26 C         138.5935  140.6683  162.0890 C.ar    1  UNL1        0.0000
     27 C         139.0083  139.4307  161.3499 C.ar    1  UNL1        0.0000
     28 C         139.3254  138.1755  162.1075 C.ar    1  UNL1        0.0000
     29 C         139.2277  138.1578  163.6041 C.ar    1  UNL1        0.0000
     30 C         138.8130  139.3954  164.3433 C.ar    1  UNL1        0.0000
     31 N         138.7153  139.3777  165.8400 N.ar    1  UNL1        0.0000
     32 C         137.7192  138.6016  166.6495 C.ar    1  UNL1        0.0000
     33 N         137.9849  138.8773  168.0998 N.ar    1  UNL1        0.0000
     34 C         139.1454  139.8237  168.1866 C.ar    1  UNL1        0.0000
     35 C         139.7485  140.3657  169.4486 C.3     1  UNL1        0.0000
     36 C         139.5968  140.1330  166.7901 C.ar    1  UNL1        0.0000
     37 C         137.7077  143.1262  163.5648 C.3     1  UNL1        0.0000
     38 O         138.0811  141.8882  164.3250 O.3     1  UNL1        0.0000
@<TRIPOS>BOND
     1    37    38    1
     2    38    25    1
     3    25    26   ar
     4    26    27   ar
     5    27     1    1
     6     1     2   ar
     7     2     3   ar
     8     6     3    1
     9     6     7    1
    10     7     8    1
    11     8    14    1
    12    14    15    1
    13    14    16    1
    14    14    17    1
    15     8     9    1
    16     9    10    1
    17    10    11    1
    18    11    18    1
    19    18    19    1
    20    19    20   ar
    21    20    21   ar
    22    21    22   ar
    23    22    23   ar
    24    23    24   ar
    25    11    12   am
    26    12    13    2
    27     3     4   ar
    28     4     5   ar
    29    27    28   ar
    30    28    29   ar
    31    29    30   ar
    32    30    31    1
    33    31    32   ar
    34    32    33   ar
    35    33    34   ar
    36    34    35    1
    37    34    36   ar
    38    30    25   ar
    39    36    31   ar
    40     5     1   ar
    41    12     6    1
    42    24    19   ar
@<TRIPOS>MOLECULE
*****
 38 42 0 0 0
SMALL
GASTEIGER

@<TRIPOS>ATOM
      1 C         141.3964  140.3137  160.9235 C.ar    1  UNL1        0.0000
      2 C         142.6349  139.9724  160.1491 C.ar    1  UNL1        0.0000
      3 N         142.3388  140.1678  158.6917 N.ar    1  UNL1        0.0000
      4 N         140.9173  140.6298  158.5653 N.ar    1  UNL1        0.0000
      5 N         140.3349  140.7199  159.9448 N.ar    1  UNL1        0.0000
      6 C         143.2960  139.9411  157.5593 C.3     1  UNL1        0.0000
      7 C         142.9999  138.7596  156.6836 C.3     1  UNL1        0.0000
      8 C         143.7575  138.2711  155.4846 C.3     1  UNL1        0.0000
      9 C         144.9980  138.8431  154.8653 C.3     1  UNL1        0.0000
     10 C         145.7875  140.0451  155.2918 C.3     1  UNL1        0.0000
     11 N         145.5314  140.9718  156.4432 N.am    1  UNL1        0.0000
     12 C         144.4225  140.9255  157.4522 C.2     1  UNL1        0.0000
     13 O         144.4430  142.0066  158.4918 O.2     1  UNL1        0.0000
     14 SI        143.2007  137.0487  154.8168 Si      1  UNL1        0.0000
     15 C         142.2939  137.9129  153.9915 C.3     1  UNL1        0.0000
     16 C         144.1075  136.1847  155.6421 C.3     1  UNL1        0.0000
     17 C         142.6439  135.8265  154.1490 C.3     1  UNL1        0.0000
     18 C         146.5141  142.0932  156.6070 C.3     1  UNL1        0.0000
     19 C         147.5013  142.3905  155.5175 C.ar    1  UNL1        0.0000
     20 C         148.8481  141.7299  155.5249 C.ar    1  UNL1        0.0000
     21 C         149.8352  142.0273  154.4354 C.ar    1  UNL1        0.0000
     22 C         149.4757  142.9853  153.3385 C.ar    1  UNL1        0.0000
     23 C         148.1290  143.6458  153.3312 C.ar    1  UNL1        0.0000
     24 C         147.1418  143.3485  154.4207 C.ar    1  UNL1        0.0000
     25 C         141.1359  141.4677  164.7118 C.ar    1  UNL1        0.0000
     26 C         141.2863  141.5231  163.2203 C.ar    1  UNL1        0.0000
     27 C         141.2460  140.2583  162.4150 C.ar    1  UNL1        0.0000
     28 C         141.0552  138.9381  163.1010 C.ar    1  UNL1        0.0000
     29 C         140.9048  138.8827  164.5924 C.ar    1  UNL1        0.0000
     30 C         140.9451  140.1475  165.3978 C.ar    1  UNL1        0.0000
     31 N         140.7947  140.0921  166.8892 N.ar    1  UNL1        0.0000
     32 C         141.8920  139.8269  167.8768 C.ar    1  UNL1        0.0000
     33 N         141.2959  139.8630  169.2528 N.ar    1  UNL1        0.0000
     34 C         139.8302  140.1505  169.1156 C.ar    1  UNL1        0.0000
     35 C         138.8469  140.2746  170.2416 C.3     1  UNL1        0.0000
     36 C         139.5203  140.2921  167.6548 C.ar    1  UNL1        0.0000
     37 C         139.9153  143.5084  165.7587 C.3     1  UNL1        0.0000
     38 O         141.1762  142.7325  165.5172 O.3     1  UNL1        0.0000
@<TRIPOS>BOND
     1    37    38    1
     2    38    25    1
     3    25    26   ar
     4    26    27   ar
     5    27     1    1
     6     1     2   ar
     7     2     3   ar
     8     6     3    1
     9     6     7    1
    10     7     8    1
    11     8    14    1
    12    14    15    1
    13    14    16    1
    14    14    17    1
    15     8     9    1
    16     9    10    1
    17    10    11    1
    18    11    18    1
    19    18    19    1
    20    19    20   ar
    21    20    21   ar
    22    21    22   ar
    23    22    23   ar
    24    23    24   ar
    25    11    12   am
    26    12    13    2
    27     3     4   ar
    28     4     5   ar
    29    27    28   ar
    30    28    29   ar
    31    29    30   ar
    32    30    31    1
    33    31    32   ar
    34    32    33   ar
    35    33    34   ar
    36    34    35    1
    37    34    36   ar
    38    30    25   ar
    39    36    31   ar
    40     5     1   ar
    41    12     6    1
    42    24    19   ar
@<TRIPOS>MOLECULE
*****
 38 42 0 0 0
SMALL
GASTEIGER

@<TRIPOS>ATOM
      1 C         142.6846  137.3187  157.4546 C.ar    1  UNL1        0.0000
      2 C         141.8927  137.8397  158.6171 C.ar    1  UNL1        0.0000
      3 N         142.4316  139.1928  158.9759 N.ar    1  UNL1        0.0000
      4 N         143.5565  139.5080  158.0351 N.ar    1  UNL1        0.0000
      5 N         143.7129  138.3497  157.0949 N.ar    1  UNL1        0.0000
      6 C         141.9331  140.0757  160.0813 C.3     1  UNL1        0.0000
      7 C         141.4702  141.4406  159.6654 C.3     1  UNL1        0.0000
      8 C         140.9233  142.5440  160.5220 C.3     1  UNL1        0.0000
      9 C         140.7042  142.5549  162.0057 C.3     1  UNL1        0.0000
     10 C         140.9779  141.4652  162.9997 C.3     1  UNL1        0.0000
     11 N         141.5383  140.0955  162.7551 N.am    1  UNL1        0.0000
     12 C         141.9634  139.4772  161.4563 C.2     1  UNL1        0.0000
     13 O         142.4882  138.0747  161.5441 O.2     1  UNL1        0.0000
     14 SI        140.5456  143.8027  159.7989 Si      1  UNL1        0.0000
     15 C         141.8674  144.4097  160.1653 C.3     1  UNL1        0.0000
     16 C         139.2238  143.1957  159.4326 C.3     1  UNL1        0.0000
     17 C         140.1679  145.0615  159.0759 C.3     1  UNL1        0.0000
     18 C         141.6942  139.2297  163.9700 C.3     1  UNL1        0.0000
     19 C         140.5130  138.9574  164.8535 C.ar    1  UNL1        0.0000
     20 C         139.6296  137.7758  164.5817 C.ar    1  UNL1        0.0000
     21 C         138.4484  137.5035  165.4652 C.ar    1  UNL1        0.0000
     22 C         138.1506  138.4127  166.6205 C.ar    1  UNL1        0.0000
     23 C         139.0338  139.5941  166.8922 C.ar    1  UNL1        0.0000
     24 C         140.2151  139.8665  166.0088 C.ar    1  UNL1        0.0000
     25 C         143.0185  133.4638  156.5722 C.ar    1  UNL1        0.0000
     26 C         143.2197  134.7841  157.2551 C.ar    1  UNL1        0.0000
     27 C         142.4835  135.9983  156.7718 C.ar    1  UNL1        0.0000
     28 C         141.5460  135.8922  155.6055 C.ar    1  UNL1        0.0000
     29 C         141.3449  134.5720  154.9227 C.ar    1  UNL1        0.0000
     30 C         142.0811  133.3577  155.4060 C.ar    1  UNL1        0.0000
     31 N         141.8798  132.0374  154.7231 N.ar    1  UNL1        0.0000
     32 C         142.8663  131.3486  153.8274 C.ar    1  UNL1        0.0000
     33 N         142.2528  130.0596  153.3668 N.ar    1  UNL1        0.0000
     34 C         140.8872  129.9518  153.9778 C.ar    1  UNL1        0.0000
     35 C         139.9216  128.8203  153.7845 C.3     1  UNL1        0.0000
     36 C         140.6566  131.1741  154.8161 C.ar    1  UNL1        0.0000
     37 C         145.0069  132.4050  157.8666 C.3     1  UNL1        0.0000
     38 O         143.7547  132.2495  157.0555 O.3     1  UNL1        0.0000
@<TRIPOS>BOND
     1    37    38    1
     2    38    25    1
     3    25    26   ar
     4    26    27   ar
     5    27     1    1
     6     1     2   ar
     7     2     3   ar
     8     6     3    1
     9     6     7    1
    10     7     8    1
    11     8    14    1
    12    14    15    1
    13    14    16    1
    14    14    17    1
    15     8     9    1
    16     9    10    1
    17    10    11    1
    18    11    18    1
    19    18    19    1
    20    19    20   ar
    21    20    21   ar
    22    21    22   ar
    23    22    23   ar
    24    23    24   ar
    25    11    12   am
    26    12    13    2
    27     3     4   ar
    28     4     5   ar
    29    27    28   ar
    30    28    29   ar
    31    29    30   ar
    32    30    31    1
    33    31    32   ar
    34    32    33   ar
    35    33    34   ar
    36    34    35    1
    37    34    36   ar
    38    30    25   ar
    39    36    31   ar
    40     5     1   ar
    41    12     6    1
    42    24    19   ar
@<TRIPOS>MOLECULE
*****
 38 42 0 0 0
SMALL
GASTEIGER

@<TRIPOS>ATOM
      1 C         143.0549  136.5299  156.6773 C.ar    1  UNL1        0.0000
      2 C         142.3923  137.2885  157.7889 C.ar    1  UNL1        0.0000
      3 N         142.9881  138.6644  157.8305 N.ar    1  UNL1        0.0000
      4 N         144.0189  138.7562  156.7446 N.ar    1  UNL1        0.0000
      5 N         144.0601  137.4369  156.0320 N.ar    1  UNL1        0.0000
      6 C         142.6182  139.7569  158.7895 C.3     1  UNL1        0.0000
      7 C         141.5010  140.6569  158.3511 C.3     1  UNL1        0.0000
      8 C         140.9041  141.8273  159.0750 C.3     1  UNL1        0.0000
      9 C         141.2768  142.3866  160.4159 C.3     1  UNL1        0.0000
     10 C         142.3385  141.9138  161.3643 C.3     1  UNL1        0.0000
     11 N         143.2897  140.7649  161.2058 N.am    1  UNL1        0.0000
     12 C         143.4141  139.8050  160.0598 C.2     1  UNL1        0.0000
     13 O         144.4749  138.7542  160.2033 O.2     1  UNL1        0.0000
     14 SI        139.7867  142.5313  158.3639 Si      1  UNL1        0.0000
     15 C         140.7844  143.3984  157.6549 C.3     1  UNL1        0.0000
     16 C         138.7890  141.6642  159.0728 C.3     1  UNL1        0.0000
     17 C         138.6694  143.2353  157.6527 C.3     1  UNL1        0.0000
     18 C         144.2424  140.5470  162.3436 C.3     1  UNL1        0.0000
     19 C         144.0256  141.2533  163.6491 C.ar    1  UNL1        0.0000
     20 C         143.1347  140.6455  164.6917 C.ar    1  UNL1        0.0000
     21 C         142.9179  141.3518  165.9971 C.ar    1  UNL1        0.0000
     22 C         143.5919  142.6658  166.2600 C.ar    1  UNL1        0.0000
     23 C         144.4827  143.2735  165.2174 C.ar    1  UNL1        0.0000
     24 C         144.6996  142.5673  163.9119 C.ar    1  UNL1        0.0000
     25 C         142.9893  132.5620  156.7186 C.ar    1  UNL1        0.0000
     26 C         143.2810  133.9790  157.1151 C.ar    1  UNL1        0.0000
     27 C         142.7632  135.1129  156.2809 C.ar    1  UNL1        0.0000
     28 C         141.9538  134.8299  155.0501 C.ar    1  UNL1        0.0000
     29 C         141.6621  133.4130  154.6536 C.ar    1  UNL1        0.0000
     30 C         142.1799  132.2790  155.4878 C.ar    1  UNL1        0.0000
     31 N         141.8882  130.8621  155.0913 N.ar    1  UNL1        0.0000
     32 C         142.9067  129.8099  154.7666 C.ar    1  UNL1        0.0000
     33 N         142.1747  128.5461  154.4244 N.ar    1  UNL1        0.0000
     34 C         140.7038  128.8173  154.5377 C.ar    1  UNL1        0.0000
     35 C         139.6031  127.8304  154.2834 C.3     1  UNL1        0.0000
     36 C         140.5266  130.2486  154.9498 C.ar    1  UNL1        0.0000
     37 C         144.9657  131.3535  157.8949 C.3     1  UNL1        0.0000
     38 O         143.5071  131.4279  157.5528 O.3     1  UNL1        0.0000
@<TRIPOS>BOND
     1    37    38    1
     2    38    25    1
     3    25    26   ar
     4    26    27   ar
     5    27     1    1
     6     1     2   ar
     7     2     3   ar
     8     6     3    1
     9     6     7    1
    10     7     8    1
    11     8    14    1
    12    14    15    1
    13    14    16    1
    14    14    17    1
    15     8     9    1
    16     9    10    1
    17    10    11    1
    18    11    18    1
    19    18    19    1
    20    19    20   ar
    21    20    21   ar
    22    21    22   ar
    23    22    23   ar
    24    23    24   ar
    25    11    12   am
    26    12    13    2
    27     3     4   ar
    28     4     5   ar
    29    27    28   ar
    30    28    29   ar
    31    29    30   ar
    32    30    31    1
    33    31    32   ar
    34    32    33   ar
    35    33    34   ar
    36    34    35    1
    37    34    36   ar
    38    30    25   ar
    39    36    31   ar
    40     5     1   ar
    41    12     6    1
    42    24    19   ar
@<TRIPOS>MOLECULE
*****
 38 42 0 0 0
SMALL
GASTEIGER

@<TRIPOS>ATOM
      1 C         143.3341  137.0427  156.2531 C.ar    1  UNL1        0.0000
      2 C         142.6551  137.7889  157.3631 C.ar    1  UNL1        0.0000
      3 N         143.3165  139.1289  157.4933 N.ar    1  UNL1        0.0000
      4 N         144.4042  139.2109  156.4637 N.ar    1  UNL1        0.0000
      5 N         144.4151  137.9215  155.6972 N.ar    1  UNL1        0.0000
      6 C         142.9538  140.1991  158.4798 C.3     1  UNL1        0.0000
      7 C         141.9884  141.2368  157.9885 C.3     1  UNL1        0.0000
      8 C         141.4352  142.4219  158.7233 C.3     1  UNL1        0.0000
      9 C         141.7108  142.8618  160.1305 C.3     1  UNL1        0.0000
     10 C         142.6077  142.2254  161.1507 C.3     1  UNL1        0.0000
     11 N         143.4504  140.9919  161.0156 N.am    1  UNL1        0.0000
     12 C         143.6044  140.0901  159.8268 C.2     1  UNL1        0.0000
     13 O         144.5317  138.9253  160.0094 O.2     1  UNL1        0.0000
     14 SI        140.4802  143.2804  157.9482 Si      1  UNL1        0.0000
     15 C         139.3309  142.4629  158.4590 C.3     1  UNL1        0.0000
     16 C         141.6294  144.0978  157.4374 C.3     1  UNL1        0.0000
     17 C         139.5251  144.1388  157.1731 C.3     1  UNL1        0.0000
     18 C         144.2440  140.6097  162.2296 C.3     1  UNL1        0.0000
     19 C         143.6242  139.7490  163.2904 C.ar    1  UNL1        0.0000
     20 C         142.3650  138.9881  162.9979 C.ar    1  UNL1        0.0000
     21 C         141.7453  138.1274  164.0586 C.ar    1  UNL1        0.0000
     22 C         142.3848  138.0276  165.4118 C.ar    1  UNL1        0.0000
     23 C         143.6440  138.7884  165.7042 C.ar    1  UNL1        0.0000
     24 C         144.2637  139.6491  164.6436 C.ar    1  UNL1        0.0000
     25 C         142.6743  133.1293  156.2747 C.ar    1  UNL1        0.0000
     26 C         143.0164  134.5117  156.7461 C.ar    1  UNL1        0.0000
     27 C         142.9921  135.6603  155.7818 C.ar    1  UNL1        0.0000
     28 C         142.6257  135.4267  154.3460 C.ar    1  UNL1        0.0000
     29 C         142.2837  134.0444  153.8747 C.ar    1  UNL1        0.0000
     30 C         142.3080  132.8957  154.8390 C.ar    1  UNL1        0.0000
     31 N         141.9660  131.5134  154.3676 N.ar    1  UNL1        0.0000
     32 C         142.8358  130.6289  153.5245 C.ar    1  UNL1        0.0000
     33 N         142.1014  129.3417  153.2924 N.ar    1  UNL1        0.0000
     34 C         140.7776  129.4308  153.9920 C.ar    1  UNL1        0.0000
     35 C         139.7227  128.3648  154.0219 C.3     1  UNL1        0.0000
     36 C         140.6938  130.7729  154.6566 C.ar    1  UNL1        0.0000
     37 C         143.9018  131.0877  157.3117 C.3     1  UNL1        0.0000
     38 O         142.6986  131.9806  157.2390 O.3     1  UNL1        0.0000
@<TRIPOS>BOND
     1    37    38    1
     2    38    25    1
     3    25    26   ar
     4    26    27   ar
     5    27     1    1
     6     1     2   ar
     7     2     3   ar
     8     6     3    1
     9     6     7    1
    10     7     8    1
    11     8    14    1
    12    14    15    1
    13    14    16    1
    14    14    17    1
    15     8     9    1
    16     9    10    1
    17    10    11    1
    18    11    18    1
    19    18    19    1
    20    19    20   ar
    21    20    21   ar
    22    21    22   ar
    23    22    23   ar
    24    23    24   ar
    25    11    12   am
    26    12    13    2
    27     3     4   ar
    28     4     5   ar
    29    27    28   ar
    30    28    29   ar
    31    29    30   ar
    32    30    31    1
    33    31    32   ar
    34    32    33   ar
    35    33    34   ar
    36    34    35    1
    37    34    36   ar
    38    30    25   ar
    39    36    31   ar
    40     5     1   ar
    41    12     6    1
    42    24    19   ar
