@<TRIPOS>MOLECULE
*****
 30 34 0 0 0
SMALL
GASTEIGER

@<TRIPOS>ATOM
      1 C         140.8320  141.5792  168.4369 C.3     1  UNL1        0.1726
      2 O         141.3164  142.4908  167.3486 O.3     1  UNL1       -0.4792
      3 C         140.7911  142.3367  165.9521 C.ar    1  UNL1        0.1362
      4 C         141.2755  143.2483  164.8638 C.ar    1  UNL1        0.0366
      5 C         140.7502  143.0943  163.4673 C.ar    1  UNL1        0.0032
      6 C         139.7406  142.0286  163.1590 C.ar    1  UNL1        0.0029
      7 C         139.2562  141.1170  164.2473 C.ar    1  UNL1        0.0007
      8 C         139.7815  141.2711  165.6439 C.ar    1  UNL1        0.0357
      9 C         139.2972  140.3595  166.7322 C.3     1  UNL1        0.1582
     10 C         138.6846  140.0869  165.3903 C.3     1  UNL1        0.2351
     11 O         137.7317  138.9381  165.5405 O.2     1  UNL1       -0.4478
     12 C         137.7553  138.5008  166.9751 C.2     1  UNL1        0.2770
     13 N         136.9524  137.3816  167.5690 N.pl3   1  UNL1       -0.3133
     14 N         138.7229  139.3792  167.7116 N.2     1  UNL1       -0.2202
     15 C         139.8224  140.5135  168.1287 C.3     1  UNL1        0.1174
     16 C         139.9576  140.7679  167.8250 C.3     1  UNL1        0.1502
     17 O         139.8155  140.5005  168.1442 O.3     1  UNL1       -0.3532
     18 C         139.9576  140.7679  167.8250 C.3     1  UNL1        0.1502
     19 H         136.3407  136.8594  167.0012 H       1  UNL1        0.1466
     20 H         137.0371  137.1692  168.5265 H       1  UNL1        0.1466
     21 C         139.2153  141.8745  161.7624 C.ar    1  UNL1        0.0384
     22 C         139.0862  143.0755  160.8729 C.ar    1  UNL1        0.1022
     23 N         138.5610  142.9214  159.4764 N.ar    1  UNL1       -0.2224
     24 C         138.1648  141.5664  158.9693 C.ar    1  UNL1        0.1989
     25 N         138.2939  140.3655  159.8587 N.ar    1  UNL1       -0.2224
     26 C         138.8192  140.5195  161.2553 C.ar    1  UNL1        0.1022
     27 C         141.3573  141.7333  169.8335 C.3     1  UNL1        0.0438
     28 C         143.8840  142.3330  169.9124 C.3     1  UNL1        0.0001
     29 C         142.7736  141.3525  170.1484 C.3     1  UNL1        0.0036
     30 C         143.0795  139.9913  170.6992 C.3     1  UNL1        0.0001
@<TRIPOS>BOND
     1    28    29    1
     2    29    30    1
     3    29    27    1
     4    27     1    1
     5     1     2    1
     6     2     3    1
     7     3     4   ar
     8     4     5   ar
     9     5     6   ar
    10     6    21    1
    11    21    22   ar
    12    22    23   ar
    13    23    24   ar
    14    24    25   ar
    15    25    26   ar
    16     6     7   ar
    17     7     8   ar
    18     8     9    1
    19     9    10    1
    20    10    11    1
    21    11    12    1
    22    12    13    1
    23    12    14    2
    24     9    15    1
    25    15    16    1
    26    16    17    1
    27    17    18    1
    28    15     1    1
    29     8     3   ar
    30    14     9    1
    31    18    15    1
    32    26    21   ar
    33    13    19    1
    34    13    20    1
@<TRIPOS>MOLECULE
*****
 30 34 0 0 0
SMALL
GASTEIGER

@<TRIPOS>ATOM
      1 C         138.2297  140.7726  162.0084 C.3     1  UNL1        0.1726
      2 O         138.0876  139.7900  163.1328 O.3     1  UNL1       -0.4792
      3 C         138.6090  140.1312  164.4973 C.ar    1  UNL1        0.1362
      4 C         138.4669  139.1487  165.6217 C.ar    1  UNL1        0.0366
      5 C         138.9883  139.4898  166.9862 C.ar    1  UNL1        0.0032
      6 C         139.6518  140.8135  167.2262 C.ar    1  UNL1        0.0029
      7 C         139.7939  141.7961  166.1017 C.ar    1  UNL1        0.0007
      8 C         139.2724  141.4549  164.7372 C.ar    1  UNL1        0.0357
      9 C         139.4145  142.4374  163.6128 C.3     1  UNL1        0.1582
     10 C         139.9817  142.9159  164.9164 C.3     1  UNL1        0.2351
     11 O         140.5451  144.2893  164.7005 O.2     1  UNL1       -0.4478
     12 C         140.3261  144.6596  163.2636 C.2     1  UNL1        0.2770
     13 N         140.7341  145.9481  162.6131 N.pl3   1  UNL1       -0.3133
     14 N         139.6273  143.5150  162.5913 N.2     1  UNL1       -0.2202
     15 C         138.8931  142.0963  162.2483 C.3     1  UNL1        0.1174
     16 C         138.8535  141.8221  162.5620 C.3     1  UNL1        0.1502
     17 O         138.8952  142.1103  162.2323 O.3     1  UNL1       -0.3532
     18 C         138.8535  141.8221  162.5620 C.3     1  UNL1        0.1502
     19 H         141.1904  146.6430  163.1406 H       1  UNL1        0.1466
     20 H         140.5456  146.0990  161.6587 H       1  UNL1        0.1466
     21 C         140.1732  141.1547  168.5906 C.ar    1  UNL1        0.0384
     22 C         141.1245  142.3013  168.7650 C.ar    1  UNL1        0.1022
     23 N         141.6459  142.6425  170.1294 N.ar    1  UNL1       -0.2224
     24 C         141.2160  141.8370  171.3195 C.ar    1  UNL1        0.1989
     25 N         140.2648  140.6904  171.1453 N.ar    1  UNL1       -0.2224
     26 C         139.7433  140.3492  169.7808 C.ar    1  UNL1        0.1022
     27 C         137.7082  140.4314  160.6439 C.3     1  UNL1        0.0438
     28 C         139.4257  138.5645  160.0823 C.3     1  UNL1        0.0001
     29 C         138.5962  139.7384  159.6533 C.3     1  UNL1        0.0036
     30 C         138.6548  140.2193  158.2337 C.3     1  UNL1        0.0001
@<TRIPOS>BOND
     1    28    29    1
     2    29    30    1
     3    29    27    1
     4    27     1    1
     5     1     2    1
     6     2     3    1
     7     3     4   ar
     8     4     5   ar
     9     5     6   ar
    10     6    21    1
    11    21    22   ar
    12    22    23   ar
    13    23    24   ar
    14    24    25   ar
    15    25    26   ar
    16     6     7   ar
    17     7     8   ar
    18     8     9    1
    19     9    10    1
    20    10    11    1
    21    11    12    1
    22    12    13    1
    23    12    14    2
    24     9    15    1
    25    15    16    1
    26    16    17    1
    27    17    18    1
    28    15     1    1
    29     8     3   ar
    30    14     9    1
    31    18    15    1
    32    26    21   ar
    33    13    19    1
    34    13    20    1
@<TRIPOS>MOLECULE
*****
 30 34 0 0 0
SMALL
GASTEIGER

@<TRIPOS>ATOM
      1 C         141.1587  142.2337  167.1050 C.3     1  UNL1        0.1726
      2 O         140.3392  143.3027  166.4449 O.3     1  UNL1       -0.4792
      3 C         140.5566  143.6274  164.9967 C.ar    1  UNL1        0.1362
      4 C         139.7372  144.6964  164.3366 C.ar    1  UNL1        0.0366
      5 C         139.9545  145.0212  162.8884 C.ar    1  UNL1        0.0032
      6 C         140.9913  144.2769  162.1002 C.ar    1  UNL1        0.0029
      7 C         141.8108  143.2079  162.7604 C.ar    1  UNL1        0.0007
      8 C         141.5934  142.8832  164.2086 C.ar    1  UNL1        0.0357
      9 C         142.4128  141.8141  164.8687 C.3     1  UNL1        0.1582
     10 C         142.7410  142.0276  163.4207 C.3     1  UNL1        0.2351
     11 O         143.8346  141.0711  163.0473 O.2     1  UNL1       -0.4478
     12 C         144.1821  140.2664  164.2645 C.2     1  UNL1        0.2770
     13 N         145.2252  139.1913  164.3424 N.pl3   1  UNL1       -0.3133
     14 N         143.3035  140.7257  165.3902 N.2     1  UNL1       -0.2202
     15 C         142.1955  141.4894  166.3169 C.3     1  UNL1        0.1174
     16 C         141.9668  141.7877  166.1327 C.3     1  UNL1        0.1502
     17 O         142.2072  141.4742  166.3263 O.3     1  UNL1       -0.3532
     18 C         141.9668  141.7877  166.1327 C.3     1  UNL1        0.1502
     19 H         145.7541  138.9599  163.5449 H       1  UNL1        0.1466
     20 H         145.3810  138.7171  165.1910 H       1  UNL1        0.1466
     21 C         141.2087  144.6016  160.6521 C.ar    1  UNL1        0.0384
     22 C         142.3827  144.0207  159.9211 C.ar    1  UNL1        0.1022
     23 N         142.6000  144.3454  158.4730 N.ar    1  UNL1       -0.2224
     24 C         141.6434  145.2511  157.7556 C.ar    1  UNL1        0.1989
     25 N         140.4694  145.8320  158.4865 N.ar    1  UNL1       -0.2224
     26 C         140.2520  145.5073  159.9347 C.ar    1  UNL1        0.1022
     27 C         140.9413  141.9090  168.5532 C.3     1  UNL1        0.0438
     28 C         140.3500  144.0072  169.9667 C.3     1  UNL1        0.0001
     29 C         141.3076  142.9092  169.6093 C.3     1  UNL1        0.0036
     30 C         142.6313  142.8115  170.3080 C.3     1  UNL1        0.0001
@<TRIPOS>BOND
     1    28    29    1
     2    29    30    1
     3    29    27    1
     4    27     1    1
     5     1     2    1
     6     2     3    1
     7     3     4   ar
     8     4     5   ar
     9     5     6   ar
    10     6    21    1
    11    21    22   ar
    12    22    23   ar
    13    23    24   ar
    14    24    25   ar
    15    25    26   ar
    16     6     7   ar
    17     7     8   ar
    18     8     9    1
    19     9    10    1
    20    10    11    1
    21    11    12    1
    22    12    13    1
    23    12    14    2
    24     9    15    1
    25    15    16    1
    26    16    17    1
    27    17    18    1
    28    15     1    1
    29     8     3   ar
    30    14     9    1
    31    18    15    1
    32    26    21   ar
    33    13    19    1
    34    13    20    1
@<TRIPOS>MOLECULE
*****
 30 34 0 0 0
SMALL
GASTEIGER

@<TRIPOS>ATOM
      1 C         141.0468  142.5322  166.7369 C.3     1  UNL1        0.1726
      2 O         142.3417  141.8672  166.3751 O.3     1  UNL1       -0.4792
      3 C         142.7292  141.7139  164.9342 C.ar    1  UNL1        0.1362
      4 C         144.0241  141.0489  164.5724 C.ar    1  UNL1        0.0366
      5 C         144.4116  140.8956  163.1314 C.ar    1  UNL1        0.0032
      6 C         143.5041  141.4074  162.0522 C.ar    1  UNL1        0.0029
      7 C         142.2092  142.0724  162.4140 C.ar    1  UNL1        0.0007
      8 C         141.8217  142.2257  163.8550 C.ar    1  UNL1        0.0357
      9 C         140.5268  142.8907  164.2168 C.3     1  UNL1        0.1582
     10 C         140.7792  142.8093  162.7404 C.3     1  UNL1        0.2351
     11 O         139.6160  143.4421  162.0357 O.2     1  UNL1       -0.4478
     12 C         138.6447  143.9145  163.0765 C.2     1  UNL1        0.2770
     13 N         137.3396  144.6063  162.8152 N.pl3   1  UNL1       -0.3133
     14 N         139.2076  143.5738  164.4245 N.2     1  UNL1       -0.2202
     15 C         140.1394  143.0440  165.6577 C.3     1  UNL1        0.1174
     16 C         140.5006  142.8585  165.5568 C.3     1  UNL1        0.1502
     17 O         140.1209  143.0535  165.6629 O.3     1  UNL1       -0.3532
     18 C         140.5006  142.8585  165.5568 C.3     1  UNL1        0.1502
     19 H         137.0548  144.7870  161.8903 H       1  UNL1        0.1466
     20 H         136.7679  144.8796  163.5686 H       1  UNL1        0.1466
     21 C         143.8916  141.2541  160.6113 C.ar    1  UNL1        0.0384
     22 C         143.7182  139.9318  159.9245 C.ar    1  UNL1        0.1022
     23 N         144.1056  139.7785  158.4836 N.ar    1  UNL1       -0.2224
     24 C         144.6665  140.9474  157.7293 C.ar    1  UNL1        0.1989
     25 N         144.8399  142.2697  158.4160 N.ar    1  UNL1       -0.2224
     26 C         144.4525  142.4230  159.8570 C.ar    1  UNL1        0.1022
     27 C         140.6594  142.6855  168.1779 C.3     1  UNL1        0.0438
     28 C         139.6390  140.3011  168.3313 C.3     1  UNL1        0.0001
     29 C         140.2970  141.4774  168.9897 C.3     1  UNL1        0.0036
     30 C         140.5927  141.4454  170.4599 C.3     1  UNL1        0.0001
@<TRIPOS>BOND
     1    28    29    1
     2    29    30    1
     3    29    27    1
     4    27     1    1
     5     1     2    1
     6     2     3    1
     7     3     4   ar
     8     4     5   ar
     9     5     6   ar
    10     6    21    1
    11    21    22   ar
    12    22    23   ar
    13    23    24   ar
    14    24    25   ar
    15    25    26   ar
    16     6     7   ar
    17     7     8   ar
    18     8     9    1
    19     9    10    1
    20    10    11    1
    21    11    12    1
    22    12    13    1
    23    12    14    2
    24     9    15    1
    25    15    16    1
    26    16    17    1
    27    17    18    1
    28    15     1    1
    29     8     3   ar
    30    14     9    1
    31    18    15    1
    32    26    21   ar
    33    13    19    1
    34    13    20    1
@<TRIPOS>MOLECULE
*****
 30 34 0 0 0
SMALL
GASTEIGER

@<TRIPOS>ATOM
      1 C         142.9453  141.6723  166.8662 C.3     1  UNL1        0.1726
      2 O         142.5299  140.2695  166.5349 O.3     1  UNL1       -0.4792
      3 C         142.3855  139.8486  165.1025 C.ar    1  UNL1        0.1362
      4 C         141.9702  138.4458  164.7712 C.ar    1  UNL1        0.0366
      5 C         141.8258  138.0249  163.3388 C.ar    1  UNL1        0.0032
      6 C         142.0968  139.0068  162.2375 C.ar    1  UNL1        0.0029
      7 C         142.5121  140.4095  162.5688 C.ar    1  UNL1        0.0007
      8 C         142.6565  140.8304  164.0014 C.ar    1  UNL1        0.0357
      9 C         143.0718  142.2332  164.3327 C.3     1  UNL1        0.1582
     10 C         142.9697  141.9585  162.8615 C.3     1  UNL1        0.2351
     11 O         143.3272  143.2177  162.1289 O.2     1  UNL1       -0.4478
     12 C         143.6504  144.2706  163.1472 C.2     1  UNL1        0.2770
     13 N         144.0595  145.6838  162.8549 N.pl3   1  UNL1       -0.3133
     14 N         143.4926  143.6621  164.5092 N.2     1  UNL1       -0.2202
     15 C         143.2162  142.6541  165.7651 C.3     1  UNL1        0.1174
     16 C         143.1004  142.2628  165.6727 C.3     1  UNL1        0.1502
     17 O         143.2222  142.6741  165.7698 O.3     1  UNL1       -0.3532
     18 C         143.1004  142.2628  165.6727 C.3     1  UNL1        0.1502
     19 H         144.1357  145.9914  161.9228 H       1  UNL1        0.1466
     20 H         144.2519  146.3037  163.5951 H       1  UNL1        0.1466
     21 C         141.9524  138.5858  160.8051 C.ar    1  UNL1        0.0384
     22 C         143.0921  137.9078  160.1041 C.ar    1  UNL1        0.1022
     23 N         142.9477  137.4868  158.6716 N.ar    1  UNL1       -0.2224
     24 C         141.6636  137.7439  157.9402 C.ar    1  UNL1        0.1989
     25 N         140.5239  138.4219  158.6411 N.ar    1  UNL1       -0.2224
     26 C         140.6683  138.8429  160.0736 C.ar    1  UNL1        0.1022
     27 C         143.0897  142.0932  168.2988 C.3     1  UNL1        0.0438
     28 C         140.5946  142.8029  168.4442 C.3     1  UNL1        0.0001
     29 C         141.8701  142.3931  169.1189 C.3     1  UNL1        0.0036
     30 C         141.9260  142.2832  170.6138 C.3     1  UNL1        0.0001
@<TRIPOS>BOND
     1    28    29    1
     2    29    30    1
     3    29    27    1
     4    27     1    1
     5     1     2    1
     6     2     3    1
     7     3     4   ar
     8     4     5   ar
     9     5     6   ar
    10     6    21    1
    11    21    22   ar
    12    22    23   ar
    13    23    24   ar
    14    24    25   ar
    15    25    26   ar
    16     6     7   ar
    17     7     8   ar
    18     8     9    1
    19     9    10    1
    20    10    11    1
    21    11    12    1
    22    12    13    1
    23    12    14    2
    24     9    15    1
    25    15    16    1
    26    16    17    1
    27    17    18    1
    28    15     1    1
    29     8     3   ar
    30    14     9    1
    31    18    15    1
    32    26    21   ar
    33    13    19    1
    34    13    20    1
@<TRIPOS>MOLECULE
*****
 30 34 0 0 0
SMALL
GASTEIGER

@<TRIPOS>ATOM
      1 C         141.2618  142.2776  167.0131 C.3     1  UNL1        0.1726
      2 O         139.9427  142.7441  166.4724 O.3     1  UNL1       -0.4792
      3 C         139.5810  142.4746  165.0419 C.ar    1  UNL1        0.1362
      4 C         138.2619  142.9410  164.5011 C.ar    1  UNL1        0.0366
      5 C         137.9001  142.6715  163.0706 C.ar    1  UNL1        0.0032
      6 C         138.8575  141.9355  162.1807 C.ar    1  UNL1        0.0029
      7 C         140.1766  141.4690  162.7215 C.ar    1  UNL1        0.0007
      8 C         140.5383  141.7386  164.1521 C.ar    1  UNL1        0.0357
      9 C         141.8574  141.2721  164.6928 C.3     1  UNL1        0.1582
     10 C         141.6351  140.9315  163.2490 C.3     1  UNL1        0.2351
     11 O         142.8456  140.1964  162.7544 O.2     1  UNL1       -0.4478
     12 C         143.8160  140.0827  163.8925 C.2     1  UNL1        0.2770
     13 N         145.1609  139.4204  163.8416 N.pl3   1  UNL1       -0.3133
     14 N         143.2053  140.7476  165.0906 N.2     1  UNL1       -0.2202
     15 C         142.2192  141.5417  166.1233 C.3     1  UNL1        0.1174
     16 C         141.8512  141.6718  165.9725 C.3     1  UNL1        0.1502
     17 O         142.2380  141.5350  166.1311 O.3     1  UNL1       -0.3532
     18 C         141.8512  141.6718  165.9725 C.3     1  UNL1        0.1502
     19 H         145.4758  139.0095  163.0043 H       1  UNL1        0.1466
     20 H         145.7286  139.3967  164.6456 H       1  UNL1        0.1466
     21 C         138.4958  141.6659  160.7502 C.ar    1  UNL1        0.0384
     22 C         137.9855  140.3141  160.3475 C.ar    1  UNL1        0.1022
     23 N         137.6237  140.0445  158.9170 N.ar    1  UNL1       -0.2224
     24 C         137.7723  141.1268  157.8891 C.ar    1  UNL1        0.1989
     25 N         138.2825  142.4786  158.2917 N.ar    1  UNL1       -0.2224
     26 C         138.6443  142.7482  159.7223 C.ar    1  UNL1        0.1022
     27 C         141.6235  142.5472  168.4437 C.3     1  UNL1        0.0438
     28 C         139.6965  141.6610  169.9442 C.3     1  UNL1        0.0001
     29 C         140.5450  142.7975  169.4557 C.3     1  UNL1        0.0036
     30 C         140.3149  144.1842  169.9792 C.3     1  UNL1        0.0001
@<TRIPOS>BOND
     1    28    29    1
     2    29    30    1
     3    29    27    1
     4    27     1    1
     5     1     2    1
     6     2     3    1
     7     3     4   ar
     8     4     5   ar
     9     5     6   ar
    10     6    21    1
    11    21    22   ar
    12    22    23   ar
    13    23    24   ar
    14    24    25   ar
    15    25    26   ar
    16     6     7   ar
    17     7     8   ar
    18     8     9    1
    19     9    10    1
    20    10    11    1
    21    11    12    1
    22    12    13    1
    23    12    14    2
    24     9    15    1
    25    15    16    1
    26    16    17    1
    27    17    18    1
    28    15     1    1
    29     8     3   ar
    30    14     9    1
    31    18    15    1
    32    26    21   ar
    33    13    19    1
    34    13    20    1
@<TRIPOS>MOLECULE
*****
 30 34 0 0 0
SMALL
GASTEIGER

@<TRIPOS>ATOM
      1 C         140.8596  142.3750  166.8946 C.3     1  UNL1        0.1726
      2 O         141.9000  141.3448  166.5687 O.3     1  UNL1       -0.4792
      3 C         142.0640  140.8651  165.1570 C.ar    1  UNL1        0.1362
      4 C         143.1045  139.8349  164.8310 C.ar    1  UNL1        0.0366
      5 C         143.2685  139.3551  163.4193 C.ar    1  UNL1        0.0032
      6 C         142.3920  139.9056  162.3335 C.ar    1  UNL1        0.0029
      7 C         141.3515  140.9357  162.6595 C.ar    1  UNL1        0.0007
      8 C         141.1876  141.4155  164.0713 C.ar    1  UNL1        0.0357
      9 C         140.1471  142.4456  164.3972 C.3     1  UNL1        0.1582
     10 C         140.1945  142.0639  162.9473 C.3     1  UNL1        0.2351
     11 O         139.1460  142.8568  162.2247 O.2     1  UNL1       -0.4478
     12 C         138.4507  143.7286  163.2280 C.2     1  UNL1        0.2770
     13 N         137.3329  144.6862  162.9392 N.pl3   1  UNL1       -0.3133
     14 N         139.0694  143.4744  164.5707 N.2     1  UNL1       -0.2202
     15 C         139.9831  142.9254  165.8089 C.3     1  UNL1        0.1174
     16 C         140.2734  142.6380  165.7180 C.3     1  UNL1        0.1502
     17 O         139.9683  142.9401  165.8135 O.3     1  UNL1       -0.3532
     18 C         140.2734  142.6380  165.7180 C.3     1  UNL1        0.1502
     19 H         136.9930  144.7835  162.0204 H       1  UNL1        0.1466
     20 H         136.9391  145.2175  163.6686 H       1  UNL1        0.1466
     21 C         142.5560  139.4258  160.9218 C.ar    1  UNL1        0.0384
     22 C         143.7957  139.7717  160.1514 C.ar    1  UNL1        0.1022
     23 N         143.9597  139.2919  158.7397 N.ar    1  UNL1       -0.2224
     24 C         142.8840  138.4663  158.0984 C.ar    1  UNL1        0.1989
     25 N         141.6443  138.1204  158.8688 N.ar    1  UNL1       -0.2224
     26 C         141.4803  138.6002  160.2805 C.ar    1  UNL1        0.1022
     27 C         140.6956  142.8547  168.3064 C.3     1  UNL1        0.0438
     28 C         139.6899  142.5298  170.6798 C.3     1  UNL1        0.0001
     29 C         140.0096  141.9862  169.3188 C.3     1  UNL1        0.0036
     30 C         139.6432  140.5740  168.9702 C.3     1  UNL1        0.0001
@<TRIPOS>BOND
     1    28    29    1
     2    29    30    1
     3    29    27    1
     4    27     1    1
     5     1     2    1
     6     2     3    1
     7     3     4   ar
     8     4     5   ar
     9     5     6   ar
    10     6    21    1
    11    21    22   ar
    12    22    23   ar
    13    23    24   ar
    14    24    25   ar
    15    25    26   ar
    16     6     7   ar
    17     7     8   ar
    18     8     9    1
    19     9    10    1
    20    10    11    1
    21    11    12    1
    22    12    13    1
    23    12    14    2
    24     9    15    1
    25    15    16    1
    26    16    17    1
    27    17    18    1
    28    15     1    1
    29     8     3   ar
    30    14     9    1
    31    18    15    1
    32    26    21   ar
    33    13    19    1
    34    13    20    1
@<TRIPOS>MOLECULE
*****
 30 34 0 0 0
SMALL
GASTEIGER

@<TRIPOS>ATOM
      1 C         141.8727  141.1237  167.3350 C.3     1  UNL1        0.1726
      2 O         140.4255  140.9982  166.9609 O.3     1  UNL1       -0.4792
      3 C         140.0146  141.0665  165.5199 C.ar    1  UNL1        0.1362
      4 C         138.5674  140.9410  165.1459 C.ar    1  UNL1        0.0366
      5 C         138.1566  141.0092  163.7049 C.ar    1  UNL1        0.0032
      6 C         139.1929  141.2030  162.6379 C.ar    1  UNL1        0.0029
      7 C         140.6401  141.3285  163.0119 C.ar    1  UNL1        0.0007
      8 C         141.0510  141.2602  164.4530 C.ar    1  UNL1        0.0357
      9 C         142.4981  141.3857  164.8270 C.3     1  UNL1        0.1582
     10 C         142.2395  141.4729  163.3520 C.3     1  UNL1        0.2351
     11 O         143.5566  141.6674  162.6611 O.2     1  UNL1       -0.4478
     12 C         144.6293  141.7004  163.7090 C.2     1  UNL1        0.2770
     13 N         146.0983  141.8766  163.4618 N.pl3   1  UNL1       -0.3133
     14 N         143.9752  141.5263  165.0477 N.2     1  UNL1       -0.2202
     15 C         142.9090  141.3174  166.2680 C.3     1  UNL1        0.1174
     16 C         142.5052  141.2824  166.1637 C.3     1  UNL1        0.1502
     17 O         142.9296  141.3192  166.2734 O.3     1  UNL1       -0.3532
     18 C         142.5052  141.2824  166.1637 C.3     1  UNL1        0.1502
     19 H         146.4333  141.9839  162.5423 H       1  UNL1        0.1466
     20 H         146.7274  141.8849  164.2190 H       1  UNL1        0.1466
     21 C         138.7821  141.2712  161.1969 C.ar    1  UNL1        0.0384
     22 C         138.4251  140.0153  160.4584 C.ar    1  UNL1        0.1022
     23 N         138.0142  140.0836  159.0175 N.ar    1  UNL1       -0.2224
     24 C         137.9604  141.4077  158.3148 C.ar    1  UNL1        0.1989
     25 N         138.3173  142.6636  159.0532 N.ar    1  UNL1       -0.2224
     26 C         138.7282  142.5954  160.4943 C.ar    1  UNL1        0.1022
     27 C         142.2835  141.0554  168.7761 C.3     1  UNL1        0.0438
     28 C         142.6201  138.7209  169.8656 C.3     1  UNL1        0.0001
     29 C         141.7791  139.9439  169.6479 C.3     1  UNL1        0.0036
     30 C         140.4339  140.0552  170.3020 C.3     1  UNL1        0.0001
@<TRIPOS>BOND
     1    28    29    1
     2    29    30    1
     3    29    27    1
     4    27     1    1
     5     1     2    1
     6     2     3    1
     7     3     4   ar
     8     4     5   ar
     9     5     6   ar
    10     6    21    1
    11    21    22   ar
    12    22    23   ar
    13    23    24   ar
    14    24    25   ar
    15    25    26   ar
    16     6     7   ar
    17     7     8   ar
    18     8     9    1
    19     9    10    1
    20    10    11    1
    21    11    12    1
    22    12    13    1
    23    12    14    2
    24     9    15    1
    25    15    16    1
    26    16    17    1
    27    17    18    1
    28    15     1    1
    29     8     3   ar
    30    14     9    1
    31    18    15    1
    32    26    21   ar
    33    13    19    1
    34    13    20    1
@<TRIPOS>MOLECULE
*****
 30 34 0 0 0
SMALL
GASTEIGER

@<TRIPOS>ATOM
      1 C         140.1865  140.6733  167.4641 C.3     1  UNL1        0.1726
      2 O         139.9518  142.1158  167.1264 O.3     1  UNL1       -0.4792
      3 C         139.9903  142.5673  165.6965 C.ar    1  UNL1        0.1362
      4 C         139.7555  144.0098  165.3589 C.ar    1  UNL1        0.0366
      5 C         139.7940  144.4612  163.9290 C.ar    1  UNL1        0.0032
      6 C         140.0673  143.4701  162.8366 C.ar    1  UNL1        0.0029
      7 C         140.3020  142.0276  163.1743 C.ar    1  UNL1        0.0007
      8 C         140.2635  141.5762  164.6043 C.ar    1  UNL1        0.0357
      9 C         140.4983  140.1337  164.9419 C.3     1  UNL1        0.1582
     10 C         140.5672  140.4357  163.4742 C.3     1  UNL1        0.2351
     11 O         140.8621  139.1552  162.7507 O.2     1  UNL1       -0.4478
     12 C         140.9754  138.0617  163.7712 C.2     1  UNL1        0.2770
     13 N         141.2630  136.6172  163.4874 N.pl3   1  UNL1       -0.3133
     14 N         140.7505  138.6664  165.1255 N.2     1  UNL1       -0.2202
     15 C         140.4598  139.6822  166.3718 C.3     1  UNL1        0.1174
     16 C         140.3943  140.0847  166.2776 C.3     1  UNL1        0.1502
     17 O         140.4631  139.6616  166.3766 O.3     1  UNL1       -0.3532
     18 C         140.3943  140.0847  166.2776 C.3     1  UNL1        0.1502
     19 H         141.3966  136.3149  162.5600 H       1  UNL1        0.1466
     20 H         141.3183  135.9714  164.2285 H       1  UNL1        0.1466
     21 C         140.1058  143.9216  161.4067 C.ar    1  UNL1        0.0384
     22 C         140.9761  145.0765  161.0080 C.ar    1  UNL1        0.1022
     23 N         141.0146  145.5280  159.5781 N.ar    1  UNL1       -0.2224
     24 C         140.1828  144.8246  158.5469 C.ar    1  UNL1        0.1989
     25 N         139.3125  143.6698  158.9455 N.ar    1  UNL1       -0.2224
     26 C         139.2740  143.2182  160.3755 C.ar    1  UNL1        0.1022
     27 C         140.1480  140.2218  168.8941 C.3     1  UNL1        0.0438
     28 C         142.7101  140.3867  169.2922 C.3     1  UNL1        0.0001
     29 C         141.3054  140.5112  169.8033 C.3     1  UNL1        0.0036
     30 C         141.0580  140.9251  171.2237 C.3     1  UNL1        0.0001
@<TRIPOS>BOND
     1    28    29    1
     2    29    30    1
     3    29    27    1
     4    27     1    1
     5     1     2    1
     6     2     3    1
     7     3     4   ar
     8     4     5   ar
     9     5     6   ar
    10     6    21    1
    11    21    22   ar
    12    22    23   ar
    13    23    24   ar
    14    24    25   ar
    15    25    26   ar
    16     6     7   ar
    17     7     8   ar
    18     8     9    1
    19     9    10    1
    20    10    11    1
    21    11    12    1
    22    12    13    1
    23    12    14    2
    24     9    15    1
    25    15    16    1
    26    16    17    1
    27    17    18    1
    28    15     1    1
    29     8     3   ar
    30    14     9    1
    31    18    15    1
    32    26    21   ar
    33    13    19    1
    34    13    20    1
