@<TRIPOS>MOLECULE
*****
 27 29 0 0 0
SMALL
GASTEIGER

@<TRIPOS>ATOM
      1 N         142.2576  142.0786  164.5919 N.pl3   1  UNL1       -0.3037
      2 C         141.9484  142.1050  166.0594 C.ar    1  UNL1        0.0490
      3 C         140.5281  141.9927  166.5288 C.ar    1  UNL1        0.0153
      4 C         140.2188  142.0191  167.9963 C.ar    1  UNL1        0.0124
      5 C         141.3299  142.1578  168.9945 C.ar    1  UNL1        0.0791
      6 C         142.7501  142.2702  168.5252 C.ar    1  UNL1        0.0685
      7 CL        143.8612  142.4089  169.5233 Cl      1  UNL1       -0.0815
      8 C         143.0593  142.2437  167.0576 C.ar    1  UNL1        0.0266
      9 C         141.0207  142.1842  170.4621 C.1     1  UNL1        0.1013
     10 N         140.7115  142.2106  171.9296 N.1     1  UNL1       -0.1908
     11 C         141.8627  143.2346  163.7213 C.3     1  UNL1        0.0922
     12 C         141.5662  144.6290  164.1880 C.3     1  UNL1        0.0403
     13 C         141.2152  145.4552  162.9863 C.3     1  UNL1        0.0972
     14 N         141.2948  144.5715  161.7768 N.3     1  UNL1       -0.1576
     15 C         141.6950  143.1990  162.2311 C.3     1  UNL1        0.1151
     16 S         141.0221  144.9873  160.3617 S.O2    1  UNL1        0.0457
     17 C         140.7494  145.4030  158.9465 C.3     1  UNL1        0.1960
     18 O         142.3737  144.4813  159.9526 O.2     1  UNL1       -0.1572
     19 O         139.6706  145.4932  160.7707 O.2     1  UNL1       -0.1572
     20 C         142.9616  140.8963  163.9949 C.3     1  UNL1        0.1174
     21 C         143.1521  138.6805  166.0084 C.3     1  UNL1        0.0308
     22 C         142.3117  138.5059  164.7782 C.ar    1  UNL1       -0.0242
     23 C         141.5665  137.2235  164.5548 C.ar    1  UNL1       -0.0045
     24 C         140.7261  137.0489  163.3247 C.ar    1  UNL1       -0.0003
     25 C         140.6309  138.1567  162.3180 C.ar    1  UNL1       -0.0003
     26 C         141.3760  139.4392  162.5414 C.ar    1  UNL1       -0.0029
     27 C         142.2164  139.6138  163.7715 C.ar    1  UNL1       -0.0064
@<TRIPOS>BOND
     1    21    22    1
     2    22    23   ar
     3    23    24   ar
     4    24    25   ar
     5    25    26   ar
     6    26    27   ar
     7    27    20    1
     8    20     1    1
     9     1     2    1
    10     2     3   ar
    11     3     4   ar
    12     4     5   ar
    13     5     9    1
    14     9    10    3
    15     5     6   ar
    16     6     7    1
    17     6     8   ar
    18    11     1    1
    19    11    12    1
    20    12    13    1
    21    13    14    1
    22    14    16    1
    23    16    17    1
    24    16    18    2
    25    16    19    2
    26    14    15    1
    27    27    22   ar
    28     8     2   ar
    29    15    11    1
@<TRIPOS>MOLECULE
*****
 27 29 0 0 0
SMALL
GASTEIGER

@<TRIPOS>ATOM
      1 N         139.5964  142.6185  163.9299 N.pl3   1  UNL1       -0.3037
      2 C         140.4820  142.5182  165.1365 C.ar    1  UNL1        0.0490
      3 C         141.8712  141.9682  165.0035 C.ar    1  UNL1        0.0153
      4 C         142.7568  141.8679  166.2100 C.ar    1  UNL1        0.0124
      5 C         142.2531  142.3176  167.5495 C.ar    1  UNL1        0.0791
      6 C         140.8639  142.8675  167.6825 C.ar    1  UNL1        0.0685
      7 CL        140.3602  143.3172  169.0220 Cl      1  UNL1       -0.0815
      8 C         139.9783  142.9678  166.4759 C.ar    1  UNL1        0.0266
      9 C         143.1387  142.2173  168.7561 C.1     1  UNL1        0.1013
     10 N         144.0242  142.1170  169.9626 N.1     1  UNL1       -0.1908
     11 C         139.8265  143.7022  162.9187 C.3     1  UNL1        0.0922
     12 C         139.4168  145.1385  163.0569 C.3     1  UNL1        0.0403
     13 C         139.8439  145.8639  161.8153 C.3     1  UNL1        0.0972
     14 N         140.5175  144.8758  160.9097 N.3     1  UNL1       -0.1576
     15 C         140.5068  143.5398  161.5917 C.3     1  UNL1        0.1151
     16 S         141.0996  145.1718  159.5594 S.O2    1  UNL1        0.0457
     17 C         141.6818  145.4678  158.2090 C.3     1  UNL1        0.1960
     18 O         139.8251  145.8542  159.1595 O.2     1  UNL1       -0.1572
     19 O         142.3742  144.4895  159.9593 O.2     1  UNL1       -0.1572
     20 C         138.4807  141.6351  163.7346 C.3     1  UNL1        0.1174
     21 C         139.8078  139.5640  162.0171 C.3     1  UNL1        0.0308
     22 C         139.2890  139.1923  163.3746 C.ar    1  UNL1       -0.0242
     23 C         139.4338  137.7851  163.8733 C.ar    1  UNL1       -0.0045
     24 C         138.9150  137.4133  165.2307 C.ar    1  UNL1       -0.0003
     25 C         138.2515  138.4488  166.0895 C.ar    1  UNL1       -0.0003
     26 C         138.1068  139.8560  165.5908 C.ar    1  UNL1       -0.0029
     27 C         138.6255  140.2277  164.2333 C.ar    1  UNL1       -0.0064
@<TRIPOS>BOND
     1    21    22    1
     2    22    23   ar
     3    23    24   ar
     4    24    25   ar
     5    25    26   ar
     6    26    27   ar
     7    27    20    1
     8    20     1    1
     9     1     2    1
    10     2     3   ar
    11     3     4   ar
    12     4     5   ar
    13     5     9    1
    14     9    10    3
    15     5     6   ar
    16     6     7    1
    17     6     8   ar
    18    11     1    1
    19    11    12    1
    20    12    13    1
    21    13    14    1
    22    14    16    1
    23    16    17    1
    24    16    18    2
    25    16    19    2
    26    14    15    1
    27    27    22   ar
    28     8     2   ar
    29    15    11    1
@<TRIPOS>MOLECULE
*****
 27 29 0 0 0
SMALL
GASTEIGER

@<TRIPOS>ATOM
      1 N         141.8864  139.2467  165.5107 N.pl3   1  UNL1       -0.3037
      2 C         141.5950  139.8438  166.8555 C.ar    1  UNL1        0.0490
      3 C         140.1827  139.9104  167.3565 C.ar    1  UNL1        0.0153
      4 C         139.8913  140.5075  168.7013 C.ar    1  UNL1        0.0124
      5 C         141.0123  141.0382  169.5451 C.ar    1  UNL1        0.0791
      6 C         142.4245  140.9716  169.0441 C.ar    1  UNL1        0.0685
      7 CL        143.5455  141.5022  169.8879 Cl      1  UNL1       -0.0815
      8 C         142.7159  140.3744  167.6993 C.ar    1  UNL1        0.0266
      9 C         140.7209  141.6353  170.8899 C.1     1  UNL1        0.1013
     10 N         140.4296  142.2325  172.2348 N.1     1  UNL1       -0.1908
     11 C         140.7577  138.8485  164.6064 C.3     1  UNL1        0.0922
     12 C         140.0033  137.5530  164.6559 C.3     1  UNL1        0.0403
     13 C         138.9647  137.5798  163.5740 C.3     1  UNL1        0.0972
     14 N         139.0772  138.8919  162.8558 N.3     1  UNL1       -0.1576
     15 C         140.1854  139.6761  163.4939 C.3     1  UNL1        0.1151
     16 S         138.2303  139.3410  161.7021 S.O2    1  UNL1        0.0457
     17 C         137.3834  139.7902  160.5485 C.3     1  UNL1        0.1960
     18 O         137.4666  138.0513  161.7607 O.2     1  UNL1       -0.1572
     19 O         138.9940  140.6307  161.6436 O.2     1  UNL1       -0.1572
     20 C         143.3063  139.0477  165.0702 C.3     1  UNL1        0.1174
     21 C         143.4637  138.3258  162.1625 C.3     1  UNL1        0.0308
     22 C         144.0078  139.6397  162.6396 C.ar    1  UNL1       -0.0242
     23 C         144.6306  140.5927  161.6629 C.ar    1  UNL1       -0.0045
     24 C         145.1747  141.9066  162.1400 C.ar    1  UNL1       -0.0003
     25 C         145.0960  142.2675  163.5938 C.ar    1  UNL1       -0.0003
     26 C         144.4733  141.3146  164.5705 C.ar    1  UNL1       -0.0029
     27 C         143.9291  140.0007  164.0934 C.ar    1  UNL1       -0.0064
@<TRIPOS>BOND
     1    21    22    1
     2    22    23   ar
     3    23    24   ar
     4    24    25   ar
     5    25    26   ar
     6    26    27   ar
     7    27    20    1
     8    20     1    1
     9     1     2    1
    10     2     3   ar
    11     3     4   ar
    12     4     5   ar
    13     5     9    1
    14     9    10    3
    15     5     6   ar
    16     6     7    1
    17     6     8   ar
    18    11     1    1
    19    11    12    1
    20    12    13    1
    21    13    14    1
    22    14    16    1
    23    16    17    1
    24    16    18    2
    25    16    19    2
    26    14    15    1
    27    27    22   ar
    28     8     2   ar
    29    15    11    1
@<TRIPOS>MOLECULE
*****
 27 29 0 0 0
SMALL
GASTEIGER

@<TRIPOS>ATOM
      1 N         139.3326  140.8800  165.9152 N.pl3   1  UNL1       -0.3037
      2 C         139.3502  142.0510  164.9779 C.ar    1  UNL1        0.0490
      3 C         138.1162  142.8842  164.7955 C.ar    1  UNL1        0.0153
      4 C         138.1338  144.0551  163.8582 C.ar    1  UNL1        0.0124
      5 C         139.3852  144.3929  163.1033 C.ar    1  UNL1        0.0791
      6 C         140.6191  143.5597  163.2857 C.ar    1  UNL1        0.0685
      7 CL        141.8706  143.8974  162.5308 Cl      1  UNL1       -0.0815
      8 C         140.6016  142.3887  164.2230 C.ar    1  UNL1        0.0266
      9 C         139.4027  145.5638  162.1660 C.1     1  UNL1        0.1013
     10 N         139.4203  146.7348  161.2286 N.1     1  UNL1       -0.1908
     11 C         139.9417  141.0031  167.2806 C.3     1  UNL1        0.0922
     12 C         139.6490  140.1226  168.4592 C.3     1  UNL1        0.0403
     13 C         140.4768  140.6036  169.6139 C.3     1  UNL1        0.0972
     14 N         141.2811  141.7813  169.1490 N.3     1  UNL1       -0.1576
     15 C         140.9504  142.0282  167.7068 C.3     1  UNL1        0.1151
     16 S         142.2466  142.5731  169.9802 S.O2    1  UNL1        0.0457
     17 C         143.2121  143.3648  170.8114 C.3     1  UNL1        0.1960
     18 O         143.1650  142.6919  168.8002 O.2     1  UNL1       -0.1572
     19 O         141.3282  142.4542  171.1602 O.2     1  UNL1       -0.1572
     20 C         138.7061  139.5861  165.4873 C.3     1  UNL1        0.1174
     21 C         141.0255  137.7987  164.8349 C.3     1  UNL1        0.0308
     22 C         140.0574  138.1938  163.7594 C.ar    1  UNL1       -0.0242
     23 C         140.2489  137.6952  162.3578 C.ar    1  UNL1       -0.0045
     24 C         139.2807  138.0902  161.2823 C.ar    1  UNL1       -0.0003
     25 C         138.1210  138.9839  161.6085 C.ar    1  UNL1       -0.0003
     26 C         137.9295  139.4825  163.0102 C.ar    1  UNL1       -0.0029
     27 C         138.8977  139.0874  164.0856 C.ar    1  UNL1       -0.0064
@<TRIPOS>BOND
     1    21    22    1
     2    22    23   ar
     3    23    24   ar
     4    24    25   ar
     5    25    26   ar
     6    26    27   ar
     7    27    20    1
     8    20     1    1
     9     1     2    1
    10     2     3   ar
    11     3     4   ar
    12     4     5   ar
    13     5     9    1
    14     9    10    3
    15     5     6   ar
    16     6     7    1
    17     6     8   ar
    18    11     1    1
    19    11    12    1
    20    12    13    1
    21    13    14    1
    22    14    16    1
    23    16    17    1
    24    16    18    2
    25    16    19    2
    26    14    15    1
    27    27    22   ar
    28     8     2   ar
    29    15    11    1
@<TRIPOS>MOLECULE
*****
 27 29 0 0 0
SMALL
GASTEIGER

@<TRIPOS>ATOM
      1 N         141.2482  142.4634  166.4397 N.pl3   1  UNL1       -0.3037
      2 C         140.3946  141.7090  167.4155 C.ar    1  UNL1        0.0490
      3 C         140.3947  142.0930  168.8655 C.ar    1  UNL1        0.0153
      4 C         139.5411  141.3386  169.8413 C.ar    1  UNL1        0.0124
      5 C         138.6873  140.2000  169.3669 C.ar    1  UNL1        0.0791
      6 C         138.6871  139.8161  167.9170 C.ar    1  UNL1        0.0685
      7 CL        137.8333  138.6775  167.4426 Cl      1  UNL1       -0.0815
      8 C         139.5408  140.5705  166.9412 C.ar    1  UNL1        0.0266
      9 C         137.8336  139.4456  170.3427 C.1     1  UNL1        0.1013
     10 N         136.9800  138.6911  171.3184 N.1     1  UNL1       -0.1908
     11 C         140.6075  143.3308  165.3969 C.3     1  UNL1        0.0922
     12 C         139.3346  144.1079  165.5570 C.3     1  UNL1        0.0403
     13 C         139.0677  144.8306  164.2700 C.3     1  UNL1        0.0972
     14 N         140.1758  144.5002  163.3144 N.3     1  UNL1       -0.1576
     15 C         141.1275  143.5731  164.0109 C.3     1  UNL1        0.1151
     16 S         140.3088  145.0076  161.9091 S.O2    1  UNL1        0.0457
     17 C         140.4419  145.5150  160.5038 C.3     1  UNL1        0.1960
     18 O         141.7998  144.8712  162.0010 O.2     1  UNL1       -0.1572
     19 O         138.8179  145.1439  161.8172 O.2     1  UNL1       -0.1572
     20 C         142.7424  142.3506  166.5067 C.3     1  UNL1        0.1174
     21 C         144.7832  143.1717  164.4669 C.3     1  UNL1        0.0308
     22 C         144.4734  141.7189  164.6752 C.ar    1  UNL1       -0.0242
     23 C         145.1840  140.6766  163.8636 C.ar    1  UNL1       -0.0045
     24 C         144.8742  139.2238  164.0719 C.ar    1  UNL1       -0.0003
     25 C         143.8538  138.8133  165.0918 C.ar    1  UNL1       -0.0003
     26 C         143.1432  139.8555  165.9034 C.ar    1  UNL1       -0.0029
     27 C         143.4530  141.3083  165.6951 C.ar    1  UNL1       -0.0064
@<TRIPOS>BOND
     1    21    22    1
     2    22    23   ar
     3    23    24   ar
     4    24    25   ar
     5    25    26   ar
     6    26    27   ar
     7    27    20    1
     8    20     1    1
     9     1     2    1
    10     2     3   ar
    11     3     4   ar
    12     4     5   ar
    13     5     9    1
    14     9    10    3
    15     5     6   ar
    16     6     7    1
    17     6     8   ar
    18    11     1    1
    19    11    12    1
    20    12    13    1
    21    13    14    1
    22    14    16    1
    23    16    17    1
    24    16    18    2
    25    16    19    2
    26    14    15    1
    27    27    22   ar
    28     8     2   ar
    29    15    11    1
@<TRIPOS>MOLECULE
*****
 27 29 0 0 0
SMALL
GASTEIGER

@<TRIPOS>ATOM
      1 N         143.0036  141.6626  165.1860 N.pl3   1  UNL1       -0.3037
      2 C         142.4839  141.7850  166.5877 C.ar    1  UNL1        0.0490
      3 C         141.0479  141.4698  166.8854 C.ar    1  UNL1        0.0153
      4 C         140.5282  141.5922  168.2872 C.ar    1  UNL1        0.0124
      5 C         141.4445  142.0299  169.3912 C.ar    1  UNL1        0.0791
      6 C         142.8804  142.3451  169.0935 C.ar    1  UNL1        0.0685
      7 CL        143.7967  142.7828  170.1976 Cl      1  UNL1       -0.0815
      8 C         143.4001  142.2227  167.6918 C.ar    1  UNL1        0.0266
      9 C         140.9248  142.1523  170.7930 C.1     1  UNL1        0.1013
     10 N         140.4051  142.2748  172.1947 N.1     1  UNL1       -0.1908
     11 C         142.8838  142.8189  164.2380 C.3     1  UNL1        0.0922
     12 C         143.8196  143.9880  164.1506 C.3     1  UNL1        0.0403
     13 C         143.3213  144.9007  163.0696 C.3     1  UNL1        0.0972
     14 N         142.0775  144.2958  162.4888 N.3     1  UNL1       -0.1576
     15 C         141.8072  143.0091  163.2110 C.3     1  UNL1        0.1151
     16 S         141.2496  144.8757  161.3806 S.O2    1  UNL1        0.0457
     17 C         140.4217  145.4555  160.2724 C.3     1  UNL1        0.1960
     18 O         140.1896  145.2558  162.3715 O.2     1  UNL1       -0.1572
     19 O         142.3096  144.4955  160.3898 O.2     1  UNL1       -0.1572
     20 C         143.6431  140.3839  164.7322 C.3     1  UNL1        0.1174
     21 C         143.3998  139.9265  161.7772 C.3     1  UNL1        0.0308
     22 C         142.6705  139.0336  162.7369 C.ar    1  UNL1       -0.0242
     23 C         141.8197  137.9121  162.2191 C.ar    1  UNL1       -0.0045
     24 C         141.0904  137.0192  163.1787 C.ar    1  UNL1       -0.0003
     25 C         141.2120  137.2479  164.6562 C.ar    1  UNL1       -0.0003
     26 C         142.0629  138.3694  165.1740 C.ar    1  UNL1       -0.0029
     27 C         142.7921  139.2623  164.2143 C.ar    1  UNL1       -0.0064
@<TRIPOS>BOND
     1    21    22    1
     2    22    23   ar
     3    23    24   ar
     4    24    25   ar
     5    25    26   ar
     6    26    27   ar
     7    27    20    1
     8    20     1    1
     9     1     2    1
    10     2     3   ar
    11     3     4   ar
    12     4     5   ar
    13     5     9    1
    14     9    10    3
    15     5     6   ar
    16     6     7    1
    17     6     8   ar
    18    11     1    1
    19    11    12    1
    20    12    13    1
    21    13    14    1
    22    14    16    1
    23    16    17    1
    24    16    18    2
    25    16    19    2
    26    14    15    1
    27    27    22   ar
    28     8     2   ar
    29    15    11    1
@<TRIPOS>MOLECULE
*****
 27 29 0 0 0
SMALL
GASTEIGER

@<TRIPOS>ATOM
      1 N         140.9565  139.3469  165.2637 N.pl3   1  UNL1       -0.3037
      2 C         140.8745  139.9218  166.6467 C.ar    1  UNL1        0.0490
      3 C         139.6044  139.8000  167.4354 C.ar    1  UNL1        0.0153
      4 C         139.5224  140.3749  168.8185 C.ar    1  UNL1        0.0124
      5 C         140.7105  141.0716  169.4127 C.ar    1  UNL1        0.0791
      6 C         141.9806  141.1934  168.6240 C.ar    1  UNL1        0.0685
      7 CL        143.1687  141.8901  169.2183 Cl      1  UNL1       -0.0815
      8 C         142.0626  140.6185  167.2410 C.ar    1  UNL1        0.0266
      9 C         140.6285  141.6465  170.7958 C.1     1  UNL1        0.1013
     10 N         140.5465  142.2214  172.1788 N.1     1  UNL1       -0.1908
     11 C         142.1561  139.6234  164.4064 C.3     1  UNL1        0.0922
     12 C         143.3906  138.7760  164.3178 C.3     1  UNL1        0.0403
     13 C         144.3291  139.4247  163.3439 C.3     1  UNL1        0.0972
     14 N         143.6746  140.6730  162.8307 N.3     1  UNL1       -0.1576
     15 C         142.3315  140.7958  163.4874 C.3     1  UNL1        0.1151
     16 S         144.2603  141.6304  161.8355 S.O2    1  UNL1        0.0457
     17 C         144.8459  142.5878  160.8403 C.3     1  UNL1        0.1960
     18 O         142.9325  141.7237  161.1438 O.2     1  UNL1       -0.1572
     19 O         145.5880  141.5371  162.5271 O.2     1  UNL1       -0.1572
     20 C         139.8391  138.4956  164.7378 C.3     1  UNL1        0.1174
     21 C         137.9462  140.7885  164.3382 C.3     1  UNL1        0.0308
     22 C         138.3191  139.9129  163.1787 C.ar    1  UNL1       -0.0242
     23 C         137.7456  140.1838  161.8194 C.ar    1  UNL1       -0.0045
     24 C         138.1185  139.3082  160.6600 C.ar    1  UNL1       -0.0003
     25 C         139.0649  138.1618  160.8598 C.ar    1  UNL1       -0.0003
     26 C         139.6384  137.8910  162.2190 C.ar    1  UNL1       -0.0029
     27 C         139.2655  138.7665  163.3785 C.ar    1  UNL1       -0.0064
@<TRIPOS>BOND
     1    21    22    1
     2    22    23   ar
     3    23    24   ar
     4    24    25   ar
     5    25    26   ar
     6    26    27   ar
     7    27    20    1
     8    20     1    1
     9     1     2    1
    10     2     3   ar
    11     3     4   ar
    12     4     5   ar
    13     5     9    1
    14     9    10    3
    15     5     6   ar
    16     6     7    1
    17     6     8   ar
    18    11     1    1
    19    11    12    1
    20    12    13    1
    21    13    14    1
    22    14    16    1
    23    16    17    1
    24    16    18    2
    25    16    19    2
    26    14    15    1
    27    27    22   ar
    28     8     2   ar
    29    15    11    1
@<TRIPOS>MOLECULE
*****
 27 29 0 0 0
SMALL
GASTEIGER

@<TRIPOS>ATOM
      1 N         143.2020  141.1674  165.2300 N.pl3   1  UNL1       -0.3037
      2 C         142.6479  141.3643  166.6099 C.ar    1  UNL1        0.0490
      3 C         143.3419  142.2813  167.5730 C.ar    1  UNL1        0.0153
      4 C         142.7878  142.4782  168.9530 C.ar    1  UNL1        0.0124
      5 C         141.5397  141.7581  169.3698 C.ar    1  UNL1        0.0791
      6 C         140.8457  140.8411  168.4067 C.ar    1  UNL1        0.0685
      7 CL        139.5976  140.1210  168.8235 Cl      1  UNL1       -0.0815
      8 C         141.3998  140.6442  167.0268 C.ar    1  UNL1        0.0266
      9 C         140.9855  141.9550  170.7497 C.1     1  UNL1        0.1013
     10 N         140.4314  142.1519  172.1296 N.1     1  UNL1       -0.1908
     11 C         143.1508  142.2881  164.2343 C.3     1  UNL1        0.0922
     12 C         144.3101  143.1351  163.7998 C.3     1  UNL1        0.0403
     13 C         143.8071  144.1291  162.7953 C.3     1  UNL1        0.0972
     14 N         142.3370  143.8963  162.6089 N.3     1  UNL1       -0.1576
     15 C         141.9314  142.7585  163.4983 C.3     1  UNL1        0.1151
     16 S         141.4315  144.6662  161.6938 S.O2    1  UNL1        0.0457
     17 C         140.5260  145.4360  160.7787 C.3     1  UNL1        0.1960
     18 O         142.4100  144.4832  160.5717 O.2     1  UNL1       -0.1572
     19 O         140.4531  144.8491  162.8159 O.2     1  UNL1       -0.1572
     20 C         143.8073  139.8498  164.8458 C.3     1  UNL1        0.1174
     21 C         141.5147  137.9258  164.6400 C.3     1  UNL1        0.0308
     22 C         142.3221  138.2635  163.4218 C.ar    1  UNL1       -0.0242
     23 C         141.9832  137.6392  162.1006 C.ar    1  UNL1       -0.0045
     24 C         142.7905  137.9770  160.8824 C.ar    1  UNL1       -0.0003
     25 C         143.9367  138.9390  160.9853 C.ar    1  UNL1       -0.0003
     26 C         144.2756  139.5632  162.3064 C.ar    1  UNL1       -0.0029
     27 C         143.4683  139.2255  163.5246 C.ar    1  UNL1       -0.0064
@<TRIPOS>BOND
     1    21    22    1
     2    22    23   ar
     3    23    24   ar
     4    24    25   ar
     5    25    26   ar
     6    26    27   ar
     7    27    20    1
     8    20     1    1
     9     1     2    1
    10     2     3   ar
    11     3     4   ar
    12     4     5   ar
    13     5     9    1
    14     9    10    3
    15     5     6   ar
    16     6     7    1
    17     6     8   ar
    18    11     1    1
    19    11    12    1
    20    12    13    1
    21    13    14    1
    22    14    16    1
    23    16    17    1
    24    16    18    2
    25    16    19    2
    26    14    15    1
    27    27    22   ar
    28     8     2   ar
    29    15    11    1
@<TRIPOS>MOLECULE
*****
 27 29 0 0 0
SMALL
GASTEIGER

@<TRIPOS>ATOM
      1 N         142.0449  141.7932  165.1017 N.pl3   1  UNL1       -0.3037
      2 C         141.1724  141.3416  166.2353 C.ar    1  UNL1        0.0490
      3 C         141.3616  141.9232  167.6050 C.ar    1  UNL1        0.0153
      4 C         140.4891  141.4717  168.7385 C.ar    1  UNL1        0.0124
      5 C         139.4275  140.4385  168.5024 C.ar    1  UNL1        0.0791
      6 C         139.2384  139.8570  167.1327 C.ar    1  UNL1        0.0685
      7 CL        138.1769  138.8238  166.8965 Cl      1  UNL1       -0.0815
      8 C         140.1109  140.3085  165.9992 C.ar    1  UNL1        0.0266
      9 C         138.5551  139.9869  169.6359 C.1     1  UNL1        0.1013
     10 N         137.6826  139.5354  170.7694 N.1     1  UNL1       -0.1908
     11 C         142.7266  140.7801  164.2304 C.3     1  UNL1        0.0922
     12 C         144.0741  140.1691  164.4772 C.3     1  UNL1        0.0403
     13 C         144.3608  139.2117  163.3587 C.3     1  UNL1        0.0972
     14 N         143.1904  139.2309  162.4206 N.3     1  UNL1       -0.1576
     15 C         142.1804  140.2003  162.9594 C.3     1  UNL1        0.1151
     16 S         143.0540  138.4227  161.1644 S.O2    1  UNL1        0.0457
     17 C         142.9176  137.6145  159.9081 C.3     1  UNL1        0.1960
     18 O         144.2230  139.1503  160.5693 O.2     1  UNL1       -0.1572
     19 O         141.8850  137.6952  161.7594 O.2     1  UNL1       -0.1572
     20 C         142.2356  143.2577  164.8395 C.3     1  UNL1        0.1174
     21 C         139.4734  144.3255  165.3187 C.3     1  UNL1        0.0308
     22 C         140.1040  144.4578  163.9642 C.ar    1  UNL1       -0.0242
     23 C         139.3537  145.1241  162.8493 C.ar    1  UNL1       -0.0045
     24 C         139.9843  145.2564  161.4948 C.ar    1  UNL1       -0.0003
     25 C         141.3654  144.7225  161.2552 C.ar    1  UNL1       -0.0003
     26 C         142.1158  144.0563  162.3700 C.ar    1  UNL1       -0.0029
     27 C         141.4851  143.9239  163.7246 C.ar    1  UNL1       -0.0064
@<TRIPOS>BOND
     1    21    22    1
     2    22    23   ar
     3    23    24   ar
     4    24    25   ar
     5    25    26   ar
     6    26    27   ar
     7    27    20    1
     8    20     1    1
     9     1     2    1
    10     2     3   ar
    11     3     4   ar
    12     4     5   ar
    13     5     9    1
    14     9    10    3
    15     5     6   ar
    16     6     7    1
    17     6     8   ar
    18    11     1    1
    19    11    12    1
    20    12    13    1
    21    13    14    1
    22    14    16    1
    23    16    17    1
    24    16    18    2
    25    16    19    2
    26    14    15    1
    27    27    22   ar
    28     8     2   ar
    29    15    11    1
