@<TRIPOS>MOLECULE
*****
 31 35 0 0 0
SMALL
GASTEIGER

@<TRIPOS>ATOM
      1 C         143.0322  139.6393  160.0671 C.ar    1  UNL1        0.0681
      2 C         143.7886  138.7514  161.0103 C.ar    1  UNL1        0.0208
      3 C         143.0595  138.0161  162.0955 C.ar    1  UNL1        0.0384
      4 C         141.5740  138.1687  162.2375 C.ar    1  UNL1        0.1385
      5 C         140.8177  139.0566  161.2943 C.ar    1  UNL1        0.0384
      6 C         141.5468  139.7919  160.2091 C.ar    1  UNL1        0.0208
      7 C         144.1099  142.3912  160.5826 C.3     1  UNL1        0.0723
      8 C         144.3002  141.7506  159.2396 C.ar    1  UNL1        0.1268
      9 N         145.0294  142.4859  158.1545 N.ar    1  UNL1       -0.2318
     10 C         145.2198  141.8453  156.8115 C.ar    1  UNL1        0.0872
     11 C         145.9489  142.5806  155.7264 C.ar    1  UNL1        0.0193
     12 C         146.1393  141.9400  154.3835 C.ar    1  UNL1        0.0015
     13 C         145.6004  140.5640  154.1258 C.ar    1  UNL1        0.0003
     14 C         144.8713  139.8287  155.2109 C.ar    1  UNL1        0.0063
     15 C         144.6810  140.4693  156.5538 C.ar    1  UNL1        0.0742
     16 C         143.9518  139.7340  157.6390 C.ar    1  UNL1        0.2669
     17 O         143.4130  138.3580  157.3813 O.2     1  UNL1       -0.2665
     18 N         143.7614  140.3746  158.9819 N.ar    1  UNL1       -0.2626
     19 O         140.8448  137.4333  163.3227 O.3     1  UNL1       -0.4791
     20 C         140.3509  138.1745  164.5297 C.3     1  UNL1        0.1673
     21 C         139.0106  137.7488  165.0513 C.3     1  UNL1        0.0450
     22 C         138.2509  138.2869  166.2275 C.3     1  UNL1        0.0210
     23 C         138.6439  139.3834  167.1726 C.3     1  UNL1        0.0722
     24 N         139.8937  140.2128  167.1748 N.3     1  UNL1       -0.2738
     25 C         141.0593  140.1505  166.2325 C.3     1  UNL1        0.0758
     26 C         141.2627  139.2433  165.0553 C.3     1  UNL1        0.0608
     27 C         139.9911  141.2404  168.2631 C.3     1  UNL1        0.0575
     28 C         140.5779  142.6143  168.1285 C.3     1  UNL1        0.0160
     29 C         140.4683  143.2977  169.4592 C.3     1  UNL1        0.0014
     30 C         139.8137  142.3462  170.4164 C.3     1  UNL1        0.0014
     31 C         139.5188  141.0747  169.6772 C.3     1  UNL1        0.0160
@<TRIPOS>BOND
     1     7     8    1
     2     8     9   ar
     3     9    10   ar
     4    10    11   ar
     5    11    12   ar
     6    12    13   ar
     7    13    14   ar
     8    14    15   ar
     9    15    16   ar
    10    16    17    2
    11    16    18   ar
    12    18     1    1
    13     1     2   ar
    14     2     3   ar
    15     3     4   ar
    16     4    19    1
    17    19    20    1
    18    20    21    1
    19    21    22    1
    20    22    23    1
    21    23    24    1
    22    24    27    1
    23    27    28    1
    24    28    29    1
    25    29    30    1
    26    30    31    1
    27    24    25    1
    28    25    26    1
    29     4     5   ar
    30     5     6   ar
    31    18     8   ar
    32     6     1   ar
    33    15    10   ar
    34    26    20    1
    35    31    27    1
@<TRIPOS>MOLECULE
*****
 31 35 0 0 0
SMALL
GASTEIGER

@<TRIPOS>ATOM
      1 C         142.3853  138.7090  159.3231 C.ar    1  UNL1        0.0681
      2 C         142.7241  140.1537  159.5422 C.ar    1  UNL1        0.0208
      3 C         143.5316  140.5616  160.7387 C.ar    1  UNL1        0.0384
      4 C         144.0002  139.5248  161.7161 C.ar    1  UNL1        0.1385
      5 C         143.6614  138.0801  161.4970 C.ar    1  UNL1        0.0384
      6 C         142.8540  137.6722  160.3005 C.ar    1  UNL1        0.0208
      7 C         139.3907  138.8647  159.4106 C.3     1  UNL1        0.0723
      8 C         140.0805  138.3790  158.1703 C.ar    1  UNL1        0.1268
      9 N         139.2730  137.9712  156.9738 N.ar    1  UNL1       -0.2318
     10 C         139.9629  137.4855  155.7335 C.ar    1  UNL1        0.0872
     11 C         139.1554  137.0777  154.5370 C.ar    1  UNL1        0.0193
     12 C         139.8453  136.5920  153.2968 C.ar    1  UNL1        0.0015
     13 C         141.3426  136.5142  153.2530 C.ar    1  UNL1        0.0003
     14 C         142.1501  136.9220  154.4495 C.ar    1  UNL1        0.0063
     15 C         141.4602  137.4077  155.6897 C.ar    1  UNL1        0.0742
     16 C         142.2677  137.8155  156.8863 C.ar    1  UNL1        0.2669
     17 O         143.7651  137.7377  156.8426 O.2     1  UNL1       -0.2665
     18 N         141.5779  138.3012  158.1265 N.ar    1  UNL1       -0.2626
     19 O         144.8077  139.9326  162.9126 O.3     1  UNL1       -0.4791
     20 C         144.1352  140.1330  164.2384 C.3     1  UNL1        0.1673
     21 C         143.8403  138.8834  165.0140 C.3     1  UNL1        0.0450
     22 C         143.1839  138.7486  166.3560 C.3     1  UNL1        0.0210
     23 C         142.6602  139.8301  167.2539 C.3     1  UNL1        0.0722
     24 N         142.6636  141.3135  167.0314 N.3     1  UNL1       -0.2738
     25 C         143.1915  142.0818  165.8562 C.3     1  UNL1        0.0758
     26 C         143.8464  141.5564  164.6132 C.3     1  UNL1        0.0608
     27 C         142.0592  142.1377  168.1293 C.3     1  UNL1        0.0575
     28 C         140.6568  142.6690  168.1629 C.3     1  UNL1        0.0160
     29 C         140.4818  143.4349  169.4406 C.3     1  UNL1        0.0014
     30 C         141.7760  143.3771  170.1968 C.3     1  UNL1        0.0014
     31 C         142.7508  142.5753  169.3863 C.3     1  UNL1        0.0160
@<TRIPOS>BOND
     1     7     8    1
     2     8     9   ar
     3     9    10   ar
     4    10    11   ar
     5    11    12   ar
     6    12    13   ar
     7    13    14   ar
     8    14    15   ar
     9    15    16   ar
    10    16    17    2
    11    16    18   ar
    12    18     1    1
    13     1     2   ar
    14     2     3   ar
    15     3     4   ar
    16     4    19    1
    17    19    20    1
    18    20    21    1
    19    21    22    1
    20    22    23    1
    21    23    24    1
    22    24    27    1
    23    27    28    1
    24    28    29    1
    25    29    30    1
    26    30    31    1
    27    24    25    1
    28    25    26    1
    29     4     5   ar
    30     5     6   ar
    31    18     8   ar
    32     6     1   ar
    33    15    10   ar
    34    26    20    1
    35    31    27    1
@<TRIPOS>MOLECULE
*****
 31 35 0 0 0
SMALL
GASTEIGER

@<TRIPOS>ATOM
      1 C         141.7213  138.8618  161.7144 C.ar    1  UNL1        0.0681
      2 C         141.0867  139.4827  160.5054 C.ar    1  UNL1        0.0208
      3 C         141.5576  139.1030  159.1328 C.ar    1  UNL1        0.0384
      4 C         142.6631  138.1026  158.9692 C.ar    1  UNL1        0.1385
      5 C         143.2978  137.4817  160.1783 C.ar    1  UNL1        0.0384
      6 C         142.8269  137.8614  161.5509 C.ar    1  UNL1        0.0208
      7 C         143.1358  141.0224  163.2413 C.3     1  UNL1        0.0723
      8 C         141.9576  140.3218  163.8505 C.ar    1  UNL1        0.1268
      9 N         141.4867  140.7015  165.2231 N.ar    1  UNL1       -0.2318
     10 C         140.3084  140.0009  165.8323 C.ar    1  UNL1        0.0872
     11 C         139.8375  140.3806  167.2049 C.ar    1  UNL1        0.0193
     12 C         138.6594  139.6800  167.8140 C.ar    1  UNL1        0.0015
     13 C         137.9521  138.5998  167.0506 C.ar    1  UNL1        0.0003
     14 C         138.4230  138.2201  165.6780 C.ar    1  UNL1        0.0063
     15 C         139.6012  138.9206  165.0689 C.ar    1  UNL1        0.0742
     16 C         140.0722  138.5410  163.6962 C.ar    1  UNL1        0.2669
     17 O         139.3649  137.4607  162.9328 O.2     1  UNL1       -0.2665
     18 N         141.2503  139.2415  163.0871 N.ar    1  UNL1       -0.2626
     19 O         143.1341  137.7229  157.5966 O.3     1  UNL1       -0.4791
     20 C         142.7098  136.4171  156.9926 C.3     1  UNL1        0.1673
     21 C         141.6535  136.5036  155.9312 C.3     1  UNL1        0.0450
     22 C         141.0244  135.3918  155.1450 C.3     1  UNL1        0.0210
     23 C         141.2963  133.9189  155.2259 C.3     1  UNL1        0.0722
     24 N         142.2644  133.1940  156.1132 N.3     1  UNL1       -0.2738
     25 C         143.1998  133.7629  157.1386 C.3     1  UNL1        0.0758
     26 C         143.3980  135.1973  157.5300 C.3     1  UNL1        0.0608
     27 C         142.3022  131.7029  155.9540 C.3     1  UNL1        0.0575
     28 C         141.5264  130.9035  154.9495 C.3     1  UNL1        0.0160
     29 C         141.8671  129.4561  155.1460 C.3     1  UNL1        0.0014
     30 C         142.8535  129.3608  156.2721 C.3     1  UNL1        0.0014
     31 C         143.1224  130.7494  156.7714 C.3     1  UNL1        0.0160
@<TRIPOS>BOND
     1     7     8    1
     2     8     9   ar
     3     9    10   ar
     4    10    11   ar
     5    11    12   ar
     6    12    13   ar
     7    13    14   ar
     8    14    15   ar
     9    15    16   ar
    10    16    17    2
    11    16    18   ar
    12    18     1    1
    13     1     2   ar
    14     2     3   ar
    15     3     4   ar
    16     4    19    1
    17    19    20    1
    18    20    21    1
    19    21    22    1
    20    22    23    1
    21    23    24    1
    22    24    27    1
    23    27    28    1
    24    28    29    1
    25    29    30    1
    26    30    31    1
    27    24    25    1
    28    25    26    1
    29     4     5   ar
    30     5     6   ar
    31    18     8   ar
    32     6     1   ar
    33    15    10   ar
    34    26    20    1
    35    31    27    1
@<TRIPOS>MOLECULE
*****
 31 35 0 0 0
SMALL
GASTEIGER

@<TRIPOS>ATOM
      1 C         140.0414  139.2663  159.1553 C.ar    1  UNL1        0.0681
      2 C         140.1836  140.7585  159.0997 C.ar    1  UNL1        0.0208
      3 C         139.3811  141.6234  160.0259 C.ar    1  UNL1        0.0384
      4 C         138.4363  140.9961  161.0076 C.ar    1  UNL1        0.1385
      5 C         138.2940  139.5039  161.0632 C.ar    1  UNL1        0.0384
      6 C         139.0966  138.6390  160.1370 C.ar    1  UNL1        0.0208
      7 C         142.8632  138.5299  159.8589 C.3     1  UNL1        0.0723
      8 C         142.2549  138.0332  158.5808 C.ar    1  UNL1        0.1268
      9 N         143.0575  137.1684  157.6547 N.ar    1  UNL1       -0.2318
     10 C         142.4492  136.6717  156.3766 C.ar    1  UNL1        0.0872
     11 C         143.2518  135.8068  155.4505 C.ar    1  UNL1        0.0193
     12 C         142.6435  135.3102  154.1725 C.ar    1  UNL1        0.0015
     13 C         141.2326  135.6784  153.8207 C.ar    1  UNL1        0.0003
     14 C         140.4300  136.5432  154.7469 C.ar    1  UNL1        0.0063
     15 C         141.0383  137.0399  156.0248 C.ar    1  UNL1        0.0742
     16 C         140.2357  137.9048  156.9511 C.ar    1  UNL1        0.2669
     17 O         138.8248  138.2730  156.5993 O.2     1  UNL1       -0.2665
     18 N         140.8440  138.4014  158.2290 N.ar    1  UNL1       -0.2626
     19 O         137.6337  141.8610  161.9339 O.3     1  UNL1       -0.4791
     20 C         138.2496  142.3766  163.2007 C.3     1  UNL1        0.1673
     21 C         137.8853  143.7823  163.5763 C.3     1  UNL1        0.0450
     22 C         138.3298  144.5770  164.7683 C.3     1  UNL1        0.0210
     23 C         139.2484  144.1621  165.8793 C.3     1  UNL1        0.0722
     24 N         139.9493  142.8501  166.0725 N.3     1  UNL1       -0.2738
     25 C         139.9048  141.6289  165.2024 C.3     1  UNL1        0.0758
     26 C         139.1484  141.4182  163.9244 C.3     1  UNL1        0.0608
     27 C         140.8084  142.7453  167.2976 C.3     1  UNL1        0.0575
     28 C         140.4213  143.1662  168.6844 C.3     1  UNL1        0.0160
     29 C         141.5789  142.8823  169.5950 C.3     1  UNL1        0.0014
     30 C         142.6815  142.2860  168.7711 C.3     1  UNL1        0.0014
     31 C         142.2053  142.2014  167.3512 C.3     1  UNL1        0.0160
@<TRIPOS>BOND
     1     7     8    1
     2     8     9   ar
     3     9    10   ar
     4    10    11   ar
     5    11    12   ar
     6    12    13   ar
     7    13    14   ar
     8    14    15   ar
     9    15    16   ar
    10    16    17    2
    11    16    18   ar
    12    18     1    1
    13     1     2   ar
    14     2     3   ar
    15     3     4   ar
    16     4    19    1
    17    19    20    1
    18    20    21    1
    19    21    22    1
    20    22    23    1
    21    23    24    1
    22    24    27    1
    23    27    28    1
    24    28    29    1
    25    29    30    1
    26    30    31    1
    27    24    25    1
    28    25    26    1
    29     4     5   ar
    30     5     6   ar
    31    18     8   ar
    32     6     1   ar
    33    15    10   ar
    34    26    20    1
    35    31    27    1
@<TRIPOS>MOLECULE
*****
 31 35 0 0 0
SMALL
GASTEIGER

@<TRIPOS>ATOM
      1 C         139.2885  139.4519  164.5471 C.ar    1  UNL1        0.0681
      2 C         140.1709  138.3556  164.0280 C.ar    1  UNL1        0.0208
      3 C         140.0864  137.9430  162.5884 C.ar    1  UNL1        0.0384
      4 C         139.1195  138.6267  161.6678 C.ar    1  UNL1        0.1385
      5 C         138.2370  139.7230  162.1869 C.ar    1  UNL1        0.0384
      6 C         138.3215  140.1357  163.6265 C.ar    1  UNL1        0.0208
      7 C         137.7584  137.9349  166.6345 C.3     1  UNL1        0.0723
      8 C         138.6080  139.1060  167.0305 C.ar    1  UNL1        0.1268
      9 N         138.6925  139.5185  168.4701 N.ar    1  UNL1       -0.2318
     10 C         139.5421  140.6897  168.8661 C.ar    1  UNL1        0.0872
     11 C         139.6266  141.1022  170.3058 C.ar    1  UNL1        0.0193
     12 C         140.4761  142.2733  170.7017 C.ar    1  UNL1        0.0015
     13 C         141.2412  143.0318  169.6580 C.ar    1  UNL1        0.0003
     14 C         141.1567  142.6193  168.2184 C.ar    1  UNL1        0.0063
     15 C         140.3071  141.4482  167.8224 C.ar    1  UNL1        0.0742
     16 C         140.2226  141.0356  166.3827 C.ar    1  UNL1        0.2669
     17 O         140.9876  141.7941  165.3390 O.2     1  UNL1       -0.2665
     18 N         139.3730  139.8645  165.9868 N.ar    1  UNL1       -0.2626
     19 O         139.0349  138.2141  160.2281 O.3     1  UNL1       -0.4791
     20 C         140.1154  138.6156  159.2682 C.3     1  UNL1        0.1673
     21 C         140.0307  138.0053  157.9007 C.3     1  UNL1        0.0450
     22 C         140.9474  138.2029  156.7299 C.3     1  UNL1        0.0210
     23 C         142.1751  139.0597  156.6375 C.3     1  UNL1        0.0722
     24 N         142.7894  139.9305  157.6932 N.3     1  UNL1       -0.2738
     25 C         142.3277  140.1596  159.1019 C.3     1  UNL1        0.0758
     26 C         141.1376  139.5744  159.8028 C.3     1  UNL1        0.0608
     27 C         144.0294  140.6701  157.2864 C.3     1  UNL1        0.0575
     28 C         144.6138  141.8623  157.9845 C.3     1  UNL1        0.0160
     29 C         145.8482  142.2765  157.2398 C.3     1  UNL1        0.0014
     30 C         146.0268  141.3403  156.0815 C.3     1  UNL1        0.0014
     31 C         144.9027  140.3475  156.1103 C.3     1  UNL1        0.0160
@<TRIPOS>BOND
     1     7     8    1
     2     8     9   ar
     3     9    10   ar
     4    10    11   ar
     5    11    12   ar
     6    12    13   ar
     7    13    14   ar
     8    14    15   ar
     9    15    16   ar
    10    16    17    2
    11    16    18   ar
    12    18     1    1
    13     1     2   ar
    14     2     3   ar
    15     3     4   ar
    16     4    19    1
    17    19    20    1
    18    20    21    1
    19    21    22    1
    20    22    23    1
    21    23    24    1
    22    24    27    1
    23    27    28    1
    24    28    29    1
    25    29    30    1
    26    30    31    1
    27    24    25    1
    28    25    26    1
    29     4     5   ar
    30     5     6   ar
    31    18     8   ar
    32     6     1   ar
    33    15    10   ar
    34    26    20    1
    35    31    27    1
@<TRIPOS>MOLECULE
*****
 31 35 0 0 0
SMALL
GASTEIGER

@<TRIPOS>ATOM
      1 C         141.4813  138.8690  162.1581 C.ar    1  UNL1        0.0681
      2 C         140.9678  139.6567  160.9894 C.ar    1  UNL1        0.0208
      3 C         141.5254  139.4140  159.6183 C.ar    1  UNL1        0.0384
      4 C         142.5964  138.3836  159.4158 C.ar    1  UNL1        0.1385
      5 C         143.1099  137.5959  160.5845 C.ar    1  UNL1        0.0384
      6 C         142.5524  137.8386  161.9557 C.ar    1  UNL1        0.0208
      7 C         138.8744  137.6197  162.9601 C.3     1  UNL1        0.0723
      8 C         139.6202  138.4871  163.9304 C.ar    1  UNL1        0.1268
      9 N         139.0626  138.7299  165.3015 N.ar    1  UNL1       -0.2318
     10 C         139.8085  139.5973  166.2718 C.ar    1  UNL1        0.0872
     11 C         139.2508  139.8401  167.6429 C.ar    1  UNL1        0.0193
     12 C         139.9967  140.7075  168.6131 C.ar    1  UNL1        0.0015
     13 C         141.3001  141.3321  168.2121 C.ar    1  UNL1        0.0003
     14 C         141.8578  141.0894  166.8410 C.ar    1  UNL1        0.0063
     15 C         141.1119  140.2220  165.8708 C.ar    1  UNL1        0.0742
     16 C         141.6695  139.9792  164.4996 C.ar    1  UNL1        0.2669
     17 O         142.9730  140.6039  164.0986 O.2     1  UNL1       -0.2665
     18 N         140.9237  139.1118  163.5294 N.ar    1  UNL1       -0.2626
     19 O         143.1541  138.1408  158.0446 O.3     1  UNL1       -0.4791
     20 C         142.6536  136.9888  157.2246 C.3     1  UNL1        0.1673
     21 C         141.5464  137.3063  156.2638 C.3     1  UNL1        0.0450
     22 C         140.8386  136.3851  155.3149 C.3     1  UNL1        0.0210
     23 C         141.0632  134.9188  155.0925 C.3     1  UNL1        0.0722
     24 N         142.0511  134.0115  155.7640 N.3     1  UNL1       -0.2738
     25 C         143.0584  134.3466  156.8238 C.3     1  UNL1        0.0758
     26 C         143.3265  135.6716  157.4739 C.3     1  UNL1        0.0608
     27 C         142.0289  132.5800  155.3166 C.3     1  UNL1        0.0575
     28 C         140.8096  131.7953  154.9323 C.3     1  UNL1        0.0160
     29 C         141.2490  130.4121  154.5532 C.3     1  UNL1        0.0014
     30 C         142.7399  130.3420  154.7032 C.3     1  UNL1        0.0014
     31 C         143.2218  131.6818  155.1750 C.3     1  UNL1        0.0160
@<TRIPOS>BOND
     1     7     8    1
     2     8     9   ar
     3     9    10   ar
     4    10    11   ar
     5    11    12   ar
     6    12    13   ar
     7    13    14   ar
     8    14    15   ar
     9    15    16   ar
    10    16    17    2
    11    16    18   ar
    12    18     1    1
    13     1     2   ar
    14     2     3   ar
    15     3     4   ar
    16     4    19    1
    17    19    20    1
    18    20    21    1
    19    21    22    1
    20    22    23    1
    21    23    24    1
    22    24    27    1
    23    27    28    1
    24    28    29    1
    25    29    30    1
    26    30    31    1
    27    24    25    1
    28    25    26    1
    29     4     5   ar
    30     5     6   ar
    31    18     8   ar
    32     6     1   ar
    33    15    10   ar
    34    26    20    1
    35    31    27    1
@<TRIPOS>MOLECULE
*****
 31 35 0 0 0
SMALL
GASTEIGER

@<TRIPOS>ATOM
      1 C         139.3325  139.6647  164.7396 C.ar    1  UNL1        0.0681
      2 C         140.2552  138.6954  164.0621 C.ar    1  UNL1        0.0208
      3 C         140.0678  138.3717  162.6095 C.ar    1  UNL1        0.0384
      4 C         138.9578  139.0174  161.8344 C.ar    1  UNL1        0.1385
      5 C         138.0351  139.9868  162.5119 C.ar    1  UNL1        0.0384
      6 C         138.2224  140.3104  163.9645 C.ar    1  UNL1        0.0208
      7 C         137.7188  138.2234  166.8177 C.3     1  UNL1        0.0723
      8 C         138.7131  139.2677  167.2314 C.ar    1  UNL1        0.1268
      9 N         138.9004  139.5913  168.6840 N.ar    1  UNL1       -0.2318
     10 C         139.8946  140.6356  169.0976 C.ar    1  UNL1        0.0872
     11 C         140.0820  140.9592  170.5502 C.ar    1  UNL1        0.0193
     12 C         141.0761  142.0035  170.9638 C.ar    1  UNL1        0.0015
     13 C         141.8830  142.7242  169.9247 C.ar    1  UNL1        0.0003
     14 C         141.6956  142.4006  168.4721 C.ar    1  UNL1        0.0063
     15 C         140.7014  141.3563  168.0585 C.ar    1  UNL1        0.0742
     16 C         140.5141  141.0327  166.6059 C.ar    1  UNL1        0.2669
     17 O         141.3209  141.7533  165.5668 O.2     1  UNL1       -0.2665
     18 N         139.5199  139.9884  166.1923 N.ar    1  UNL1       -0.2626
     19 O         138.7704  138.6938  160.3817 O.3     1  UNL1       -0.4791
     20 C         139.0432  139.7376  159.3396 C.3     1  UNL1        0.1673
     21 C         140.4278  139.7350  158.7627 C.3     1  UNL1        0.0450
     22 C         141.0065  140.6401  157.7159 C.3     1  UNL1        0.0210
     23 C         140.3435  141.7714  156.9873 C.3     1  UNL1        0.0722
     24 N         138.9381  142.2769  157.1257 N.3     1  UNL1       -0.2738
     25 C         137.8484  141.7760  158.0269 C.3     1  UNL1        0.0758
     26 C         137.8952  140.6459  159.0121 C.3     1  UNL1        0.0608
     27 C         138.5739  143.4366  156.2469 C.3     1  UNL1        0.0575
     28 C         137.3181  143.5691  155.4373 C.3     1  UNL1        0.0160
     29 C         137.3696  144.8817  154.7133 C.3     1  UNL1        0.0014
     30 C         138.6573  145.5606  155.0755 C.3     1  UNL1        0.0014
     31 C         139.4016  144.6675  156.0232 C.3     1  UNL1        0.0160
@<TRIPOS>BOND
     1     7     8    1
     2     8     9   ar
     3     9    10   ar
     4    10    11   ar
     5    11    12   ar
     6    12    13   ar
     7    13    14   ar
     8    14    15   ar
     9    15    16   ar
    10    16    17    2
    11    16    18   ar
    12    18     1    1
    13     1     2   ar
    14     2     3   ar
    15     3     4   ar
    16     4    19    1
    17    19    20    1
    18    20    21    1
    19    21    22    1
    20    22    23    1
    21    23    24    1
    22    24    27    1
    23    27    28    1
    24    28    29    1
    25    29    30    1
    26    30    31    1
    27    24    25    1
    28    25    26    1
    29     4     5   ar
    30     5     6   ar
    31    18     8   ar
    32     6     1   ar
    33    15    10   ar
    34    26    20    1
    35    31    27    1
@<TRIPOS>MOLECULE
*****
 31 35 0 0 0
SMALL
GASTEIGER

@<TRIPOS>ATOM
      1 C         140.7848  139.5631  163.8281 C.ar    1  UNL1        0.0681
      2 C         141.0686  140.7595  162.9690 C.ar    1  UNL1        0.0208
      3 C         140.7247  140.7332  161.5092 C.ar    1  UNL1        0.0384
      4 C         140.0970  139.5105  160.9085 C.ar    1  UNL1        0.1385
      5 C         139.8131  138.3141  161.7676 C.ar    1  UNL1        0.0384
      6 C         140.1570  138.3404  163.2274 C.ar    1  UNL1        0.0208
      7 C         143.5617  138.8707  164.7276 C.3     1  UNL1        0.0723
      8 C         142.5171  139.2433  165.7377 C.ar    1  UNL1        0.1268
      9 N         142.8611  139.2697  167.1975 N.ar    1  UNL1       -0.2318
     10 C         141.8165  139.6422  168.2076 C.ar    1  UNL1        0.0872
     11 C         142.1605  139.6686  169.6673 C.ar    1  UNL1        0.0193
     12 C         141.1160  140.0412  170.6773 C.ar    1  UNL1        0.0015
     13 C         139.7275  140.3874  170.2275 C.ar    1  UNL1        0.0003
     14 C         139.3836  140.3610  168.7678 C.ar    1  UNL1        0.0063
     15 C         140.4281  139.9885  167.7578 C.ar    1  UNL1        0.0742
     16 C         140.0842  139.9621  166.2979 C.ar    1  UNL1        0.2669
     17 O         138.6957  140.3083  165.8481 O.2     1  UNL1       -0.2665
     18 N         141.1287  139.5895  165.2879 N.ar    1  UNL1       -0.2626
     19 O         139.7531  139.4841  159.4487 O.3     1  UNL1       -0.4791
     20 C         140.4759  138.5494  158.5246 C.3     1  UNL1        0.1673
     21 C         141.9312  138.3382  158.8203 C.3     1  UNL1        0.0450
     22 C         142.9179  137.4749  158.0915 C.3     1  UNL1        0.0210
     23 C         142.6931  136.6097  156.8870 C.3     1  UNL1        0.0722
     24 N         141.4259  136.3941  156.1138 N.3     1  UNL1       -0.2738
     25 C         140.0706  136.9905  156.3541 C.3     1  UNL1        0.0758
     26 C         139.6479  137.9497  157.4271 C.3     1  UNL1        0.0608
     27 C         141.5273  135.4585  154.9458 C.3     1  UNL1        0.0575
     28 C         141.3266  133.9725  154.9865 C.3     1  UNL1        0.0160
     29 C         141.5224  133.4400  153.5980 C.3     1  UNL1        0.0014
     30 C         141.8442  134.5969  152.6990 C.3     1  UNL1        0.0014
     31 C         141.8472  135.8444  153.5320 C.3     1  UNL1        0.0160
@<TRIPOS>BOND
     1     7     8    1
     2     8     9   ar
     3     9    10   ar
     4    10    11   ar
     5    11    12   ar
     6    12    13   ar
     7    13    14   ar
     8    14    15   ar
     9    15    16   ar
    10    16    17    2
    11    16    18   ar
    12    18     1    1
    13     1     2   ar
    14     2     3   ar
    15     3     4   ar
    16     4    19    1
    17    19    20    1
    18    20    21    1
    19    21    22    1
    20    22    23    1
    21    23    24    1
    22    24    27    1
    23    27    28    1
    24    28    29    1
    25    29    30    1
    26    30    31    1
    27    24    25    1
    28    25    26    1
    29     4     5   ar
    30     5     6   ar
    31    18     8   ar
    32     6     1   ar
    33    15    10   ar
    34    26    20    1
    35    31    27    1
@<TRIPOS>MOLECULE
*****
 31 35 0 0 0
SMALL
GASTEIGER

@<TRIPOS>ATOM
      1 C         139.2436  140.8020  164.6435 C.ar    1  UNL1        0.0681
      2 C         140.2024  140.1358  163.7018 C.ar    1  UNL1        0.0208
      3 C         139.9645  140.1966  162.2220 C.ar    1  UNL1        0.0384
      4 C         138.7678  140.9236  161.6841 C.ar    1  UNL1        0.1385
      5 C         137.8090  141.5898  162.6258 C.ar    1  UNL1        0.0384
      6 C         138.0469  141.5290  164.1056 C.ar    1  UNL1        0.0208
      7 C         138.0065  138.6075  166.2727 C.3     1  UNL1        0.0723
      8 C         138.8630  139.6439  166.9379 C.ar    1  UNL1        0.1268
      9 N         139.1009  139.5830  168.4176 N.ar    1  UNL1       -0.2318
     10 C         139.9573  140.6194  169.0829 C.ar    1  UNL1        0.0872
     11 C         140.1952  140.5585  170.5626 C.ar    1  UNL1        0.0193
     12 C         141.0517  141.5949  171.2278 C.ar    1  UNL1        0.0015
     13 C         141.6702  142.6921  170.4132 C.ar    1  UNL1        0.0003
     14 C         141.4323  142.7530  168.9335 C.ar    1  UNL1        0.0063
     15 C         140.5759  141.7166  168.2683 C.ar    1  UNL1        0.0742
     16 C         140.3379  141.7775  166.7885 C.ar    1  UNL1        0.2669
     17 O         140.9565  142.8747  165.9739 O.2     1  UNL1       -0.2665
     18 N         139.4815  140.7411  166.1233 N.ar    1  UNL1       -0.2626
     19 O         138.5299  140.9844  160.2042 O.3     1  UNL1       -0.4791
     20 C         139.5267  140.3821  159.2590 C.3     1  UNL1        0.1673
     21 C         140.6229  141.2969  158.7994 C.3     1  UNL1        0.0450
     22 C         141.7587  141.0002  157.8656 C.3     1  UNL1        0.0210
     23 C         142.0788  139.7154  157.1607 C.3     1  UNL1        0.0722
     24 N         141.3421  138.4099  157.2157 N.3     1  UNL1       -0.2738
     25 C         140.1034  138.0668  157.9890 C.3     1  UNL1        0.0758
     26 C         139.2954  138.9446  158.8983 C.3     1  UNL1        0.0608
     27 C         141.9205  137.3008  156.3879 C.3     1  UNL1        0.0575
     28 C         141.1408  136.2827  155.6096 C.3     1  UNL1        0.0160
     29 C         142.1184  135.3677  154.9337 C.3     1  UNL1        0.0014
     30 C         143.5024  135.8202  155.2942 C.3     1  UNL1        0.0014
     31 C         143.3801  137.0149  156.1929 C.3     1  UNL1        0.0160
@<TRIPOS>BOND
     1     7     8    1
     2     8     9   ar
     3     9    10   ar
     4    10    11   ar
     5    11    12   ar
     6    12    13   ar
     7    13    14   ar
     8    14    15   ar
     9    15    16   ar
    10    16    17    2
    11    16    18   ar
    12    18     1    1
    13     1     2   ar
    14     2     3   ar
    15     3     4   ar
    16     4    19    1
    17    19    20    1
    18    20    21    1
    19    21    22    1
    20    22    23    1
    21    23    24    1
    22    24    27    1
    23    27    28    1
    24    28    29    1
    25    29    30    1
    26    30    31    1
    27    24    25    1
    28    25    26    1
    29     4     5   ar
    30     5     6   ar
    31    18     8   ar
    32     6     1   ar
    33    15    10   ar
    34    26    20    1
    35    31    27    1
