@<TRIPOS>MOLECULE
*****
 23 25 0 0 0
SMALL
GASTEIGER

@<TRIPOS>ATOM
      1 N         138.2831  141.4531  163.0011 N.ar    1  UNL1       -0.2075
      2 C         138.6478  142.8297  163.4722 C.ar    1  UNL1        0.1378
      3 C         138.3266  143.7965  162.3712 C.ar    1  UNL1        0.1713
      4 N         137.7635  143.0174  161.2197 N.ar    1  UNL1       -0.1135
      5 N         137.7366  141.5690  161.6091 N.ar    1  UNL1       -0.0583
      6 F         138.0263  138.8904  167.5141 F       1  UNL1       -0.2041
      7 C         138.3094  138.9020  166.0411 C.ar    1  UNL1        0.1416
      8 C         138.7471  137.6439  165.3516 C.ar    1  UNL1        0.0297
      9 C         139.0302  137.6554  163.8786 C.ar    1  UNL1        0.0039
     10 C         138.8755  138.9252  163.0951 C.ar    1  UNL1        0.0193
     11 C         138.4378  140.1834  163.7846 C.ar    1  UNL1        0.0868
     12 C         138.1547  140.1717  165.2576 C.ar    1  UNL1        0.0488
     13 N         138.5325  145.2817  162.4141 N.pl3   1  UNL1       -0.3142
     14 H         137.8138  145.8690  162.7423 H       1  UNL1        0.1483
     15 C         139.8335  145.8721  161.9568 C.3     1  UNL1        0.1058
     16 C         140.7867  145.0473  161.1437 C.3     1  UNL1        0.0936
     17 N         141.9917  144.4349  161.7939 N.3     1  UNL1       -0.2690
     18 C         142.2136  144.8034  163.2310 C.3     1  UNL1        0.0748
     19 C         143.3142  144.3630  164.1502 C.3     1  UNL1        0.0494
     20 C         144.4645  143.4454  163.8594 C.3     1  UNL1        0.1437
     21 O         144.7985  142.7415  162.5776 O.3     1  UNL1       -0.3522
     22 C         144.0647  142.7814  161.2700 C.3     1  UNL1        0.1594
     23 C         142.8155  143.5351  160.9213 C.3     1  UNL1        0.1046
@<TRIPOS>BOND
     1     6     7    1
     2     7     8   ar
     3     8     9   ar
     4     9    10   ar
     5    10    11   ar
     6    11     1    1
     7     1     2   ar
     8     2     3   ar
     9     3    13    1
    10    13    15    1
    11    15    16    1
    12    16    17    1
    13    17    18    1
    14    18    19    1
    15    19    20    1
    16    20    21    1
    17    21    22    1
    18    22    23    1
    19     3     4   ar
    20     4     5   ar
    21    11    12   ar
    22    12     7   ar
    23     5     1   ar
    24    23    17    1
    25    13    14    1
@<TRIPOS>MOLECULE
*****
 23 25 0 0 0
SMALL
GASTEIGER

@<TRIPOS>ATOM
      1 N         139.3701  139.8521  167.6955 N.ar    1  UNL1       -0.2075
      2 C         139.6750  139.3608  166.3114 C.ar    1  UNL1        0.1378
      3 C         138.6409  138.3382  165.9442 C.ar    1  UNL1        0.1713
      4 N         137.6968  138.1975  167.1014 N.ar    1  UNL1       -0.1135
      5 N         138.1476  139.1331  168.1838 N.ar    1  UNL1       -0.0583
      6 F         143.6580  142.7295  168.2735 F       1  UNL1       -0.2041
      7 C         142.2947  142.3203  168.7466 C.ar    1  UNL1        0.1416
      8 C         141.7119  142.9406  169.9817 C.ar    1  UNL1        0.0297
      9 C         140.3486  142.5314  170.4549 C.ar    1  UNL1        0.0039
     10 C         139.5680  141.5019  169.6928 C.ar    1  UNL1        0.0193
     11 C         140.1507  140.8816  168.4576 C.ar    1  UNL1        0.0868
     12 C         141.5140  141.2908  167.9845 C.ar    1  UNL1        0.0488
     13 N         138.5641  137.5880  164.6476 N.pl3   1  UNL1       -0.3142
     14 H         138.1802  136.6817  164.6252 H       1  UNL1        0.1483
     15 C         139.0724  138.2187  163.3850 C.3     1  UNL1        0.1058
     16 C         138.1157  138.8875  162.4430 C.3     1  UNL1        0.0936
     17 N         138.0650  140.3845  162.3630 N.3     1  UNL1       -0.2690
     18 C         137.7545  141.0946  163.6474 C.3     1  UNL1        0.0748
     19 C         137.6338  142.5691  163.8953 C.3     1  UNL1        0.0494
     20 C         137.7937  143.6975  162.9202 C.3     1  UNL1        0.1437
     21 O         138.1138  143.6303  161.4562 O.3     1  UNL1       -0.3522
     22 C         138.3530  142.4180  160.6059 C.3     1  UNL1        0.1594
     23 C         138.3313  140.9735  161.0096 C.3     1  UNL1        0.1046
@<TRIPOS>BOND
     1     6     7    1
     2     7     8   ar
     3     8     9   ar
     4     9    10   ar
     5    10    11   ar
     6    11     1    1
     7     1     2   ar
     8     2     3   ar
     9     3    13    1
    10    13    15    1
    11    15    16    1
    12    16    17    1
    13    17    18    1
    14    18    19    1
    15    19    20    1
    16    20    21    1
    17    21    22    1
    18    22    23    1
    19     3     4   ar
    20     4     5   ar
    21    11    12   ar
    22    12     7   ar
    23     5     1   ar
    24    23    17    1
    25    13    14    1
@<TRIPOS>MOLECULE
*****
 23 25 0 0 0
SMALL
GASTEIGER

@<TRIPOS>ATOM
      1 N         139.3898  139.7576  167.8333 N.ar    1  UNL1       -0.2075
      2 C         139.8018  139.4744  166.4191 C.ar    1  UNL1        0.1378
      3 C         138.7108  138.6754  165.7697 C.ar    1  UNL1        0.1713
      4 N         137.6247  138.4649  166.7827 N.ar    1  UNL1       -0.1135
      5 N         138.0444  139.1338  168.0581 N.ar    1  UNL1       -0.0583
      6 F         140.8580  144.2983  169.8891 F       1  UNL1       -0.2041
      7 C         140.9181  142.7996  169.8732 C.ar    1  UNL1        0.1416
      8 C         141.7722  142.0726  170.8690 C.ar    1  UNL1        0.0297
      9 C         141.8323  140.5739  170.8530 C.ar    1  UNL1        0.0039
     10 C         141.0382  139.8022  169.8411 C.ar    1  UNL1        0.0193
     11 C         140.1839  140.5293  168.8452 C.ar    1  UNL1        0.0868
     12 C         140.1239  142.0280  168.8613 C.ar    1  UNL1        0.0488
     13 N         138.7067  138.1749  164.3558 N.pl3   1  UNL1       -0.3142
     14 H         138.7126  137.2069  164.1762 H       1  UNL1        0.1483
     15 C         138.6938  139.1492  163.2152 C.3     1  UNL1        0.1058
     16 C         137.8689  140.3987  163.3057 C.3     1  UNL1        0.0936
     17 N         138.5365  141.7417  163.2789 N.3     1  UNL1       -0.2690
     18 C         137.6229  142.9192  163.1085 C.3     1  UNL1        0.0748
     19 C         137.9766  144.3755  163.0432 C.3     1  UNL1        0.0494
     20 C         139.3309  145.0139  163.1321 C.3     1  UNL1        0.1437
     21 O         140.6663  144.3537  163.3084 O.3     1  UNL1       -0.3522
     22 C         140.9770  142.8921  163.4392 C.3     1  UNL1        0.1594
     23 C         140.0291  141.7297  163.4261 C.3     1  UNL1        0.1046
@<TRIPOS>BOND
     1     6     7    1
     2     7     8   ar
     3     8     9   ar
     4     9    10   ar
     5    10    11   ar
     6    11     1    1
     7     1     2   ar
     8     2     3   ar
     9     3    13    1
    10    13    15    1
    11    15    16    1
    12    16    17    1
    13    17    18    1
    14    18    19    1
    15    19    20    1
    16    20    21    1
    17    21    22    1
    18    22    23    1
    19     3     4   ar
    20     4     5   ar
    21    11    12   ar
    22    12     7   ar
    23     5     1   ar
    24    23    17    1
    25    13    14    1
@<TRIPOS>MOLECULE
*****
 23 25 0 0 0
SMALL
GASTEIGER

@<TRIPOS>ATOM
      1 N         140.8984  140.6644  166.2745 N.ar    1  UNL1       -0.2075
      2 C         141.9432  139.6243  165.9977 C.ar    1  UNL1        0.1378
      3 C         142.0478  139.4568  164.5107 C.ar    1  UNL1        0.1713
      4 N         141.0676  140.3933  163.8686 N.ar    1  UNL1       -0.1135
      5 N         140.3572  141.1396  164.9588 N.ar    1  UNL1       -0.0583
      6 F         140.7534  144.3960  169.8875 F       1  UNL1       -0.2041
      7 C         140.3974  143.0106  169.4359 C.ar    1  UNL1        0.1416
      8 C         139.6130  142.1057  170.3390 C.ar    1  UNL1        0.0297
      9 C         139.2570  140.7203  169.8874 C.ar    1  UNL1        0.0039
     10 C         139.6855  140.2398  168.5326 C.ar    1  UNL1        0.0193
     11 C         140.4699  141.1448  167.6294 C.ar    1  UNL1        0.0868
     12 C         140.8259  142.5301  168.0810 C.ar    1  UNL1        0.0488
     13 N         142.9705  138.5177  163.7920 N.pl3   1  UNL1       -0.3142
     14 H         142.7392  137.5639  163.7139 H       1  UNL1        0.1483
     15 C         144.2457  139.0317  163.1922 C.3     1  UNL1        0.1058
     16 C         144.9915  140.1490  163.8596 C.3     1  UNL1        0.0936
     17 N         144.6253  141.5742  163.5686 N.3     1  UNL1       -0.2690
     18 C         144.4564  142.4604  164.7670 C.3     1  UNL1        0.0748
     19 C         144.0969  143.9161  164.8104 C.3     1  UNL1        0.0494
     20 C         143.8175  144.8450  163.6664 C.3     1  UNL1        0.1437
     21 O         143.8286  144.5477  162.1961 O.3     1  UNL1       -0.3522
     22 C         144.1219  143.2481  161.5069 C.3     1  UNL1        0.1594
     23 C         144.4764  141.9248  162.1178 C.3     1  UNL1        0.1046
@<TRIPOS>BOND
     1     6     7    1
     2     7     8   ar
     3     8     9   ar
     4     9    10   ar
     5    10    11   ar
     6    11     1    1
     7     1     2   ar
     8     2     3   ar
     9     3    13    1
    10    13    15    1
    11    15    16    1
    12    16    17    1
    13    17    18    1
    14    18    19    1
    15    19    20    1
    16    20    21    1
    17    21    22    1
    18    22    23    1
    19     3     4   ar
    20     4     5   ar
    21    11    12   ar
    22    12     7   ar
    23     5     1   ar
    24    23    17    1
    25    13    14    1
@<TRIPOS>MOLECULE
*****
 23 25 0 0 0
SMALL
GASTEIGER

@<TRIPOS>ATOM
      1 N         138.2464  141.3523  163.0747 N.ar    1  UNL1       -0.2075
      2 C         138.6123  142.7287  163.5455 C.ar    1  UNL1        0.1378
      3 C         138.2902  143.6959  162.4451 C.ar    1  UNL1        0.1713
      4 N         137.7253  142.9172  161.2942 N.ar    1  UNL1       -0.1135
      5 N         137.6982  141.4687  161.6833 N.ar    1  UNL1       -0.0583
      6 F         137.9794  138.7855  167.5847 F       1  UNL1       -0.2041
      7 C         138.2680  138.7989  166.1128 C.ar    1  UNL1        0.1416
      8 C         138.7117  137.5425  165.4239 C.ar    1  UNL1        0.0297
      9 C         139.0003  137.5559  163.9520 C.ar    1  UNL1        0.0039
     10 C         138.8452  138.8259  163.1689 C.ar    1  UNL1        0.0193
     11 C         138.4015  140.0824  163.8578 C.ar    1  UNL1        0.0868
     12 C         138.1129  140.0689  165.3297 C.ar    1  UNL1        0.0488
     13 N         138.4968  145.1809  162.4879 N.pl3   1  UNL1       -0.3142
     14 H         137.7654  145.7714  162.7805 H       1  UNL1        0.1483
     15 C         139.8179  145.7663  162.0851 C.3     1  UNL1        0.1058
     16 C         140.2166  145.7933  160.6393 C.3     1  UNL1        0.0936
     17 N         141.3301  144.9144  160.1519 N.3     1  UNL1       -0.2690
     18 C         141.5580  144.9147  158.6692 C.3     1  UNL1        0.0748
     19 C         142.5806  144.1521  157.8800 C.3     1  UNL1        0.0494
     20 C         143.6277  143.2009  158.3784 C.3     1  UNL1        0.1437
     21 O         143.9110  142.7772  159.7892 O.3     1  UNL1       -0.3522
     22 C         143.2171  143.2002  161.0500 C.3     1  UNL1        0.1594
     23 C         142.0685  144.1514  161.2113 C.3     1  UNL1        0.1046
@<TRIPOS>BOND
     1     6     7    1
     2     7     8   ar
     3     8     9   ar
     4     9    10   ar
     5    10    11   ar
     6    11     1    1
     7     1     2   ar
     8     2     3   ar
     9     3    13    1
    10    13    15    1
    11    15    16    1
    12    16    17    1
    13    17    18    1
    14    18    19    1
    15    19    20    1
    16    20    21    1
    17    21    22    1
    18    22    23    1
    19     3     4   ar
    20     4     5   ar
    21    11    12   ar
    22    12     7   ar
    23     5     1   ar
    24    23    17    1
    25    13    14    1
@<TRIPOS>MOLECULE
*****
 23 25 0 0 0
SMALL
GASTEIGER

@<TRIPOS>ATOM
      1 N         138.5007  141.5119  163.0038 N.ar    1  UNL1       -0.2075
      2 C         138.9789  142.8666  163.4351 C.ar    1  UNL1        0.1378
      3 C         138.4995  143.8697  162.4281 C.ar    1  UNL1        0.1713
      4 N         137.7250  143.1348  161.3744 N.ar    1  UNL1       -0.1135
      5 N         137.7257  141.6776  161.7303 N.ar    1  UNL1       -0.0583
      6 F         140.8156  136.8649  163.2204 F       1  UNL1       -0.2041
      7 C         139.9105  137.8949  163.8286 C.ar    1  UNL1        0.1416
      8 C         139.2579  137.6316  165.1532 C.ar    1  UNL1        0.0297
      9 C         138.3528  138.6616  165.7614 C.ar    1  UNL1        0.0039
     10 C         138.1004  139.9550  165.0449 C.ar    1  UNL1        0.0193
     11 C         138.7531  140.2184  163.7202 C.ar    1  UNL1        0.0868
     12 C         139.6581  139.1884  163.1121 C.ar    1  UNL1        0.0488
     13 N         138.7505  145.3479  162.4678 N.pl3   1  UNL1       -0.3142
     14 H         138.0553  145.9563  162.8081 H       1  UNL1        0.1483
     15 C         140.0608  145.8993  161.9889 C.3     1  UNL1        0.1058
     16 C         140.6331  145.4427  160.6797 C.3     1  UNL1        0.0936
     17 N         141.8497  144.5657  160.6582 N.3     1  UNL1       -0.2690
     18 C         142.5434  144.3826  161.9756 C.3     1  UNL1        0.0748
     19 C         143.7706  143.5763  162.2822 C.3     1  UNL1        0.0494
     20 C         144.6071  142.7540  161.3474 C.3     1  UNL1        0.1437
     21 O         144.4231  142.5348  159.8749 O.3     1  UNL1       -0.3522
     22 C         143.3571  143.0838  158.9737 C.3     1  UNL1        0.1594
     23 C         142.2119  143.9877  159.3223 C.3     1  UNL1        0.1046
@<TRIPOS>BOND
     1     6     7    1
     2     7     8   ar
     3     8     9   ar
     4     9    10   ar
     5    10    11   ar
     6    11     1    1
     7     1     2   ar
     8     2     3   ar
     9     3    13    1
    10    13    15    1
    11    15    16    1
    12    16    17    1
    13    17    18    1
    14    18    19    1
    15    19    20    1
    16    20    21    1
    17    21    22    1
    18    22    23    1
    19     3     4   ar
    20     4     5   ar
    21    11    12   ar
    22    12     7   ar
    23     5     1   ar
    24    23    17    1
    25    13    14    1
@<TRIPOS>MOLECULE
*****
 23 25 0 0 0
SMALL
GASTEIGER

@<TRIPOS>ATOM
      1 N         139.8887  140.0518  167.7276 N.ar    1  UNL1       -0.2075
      2 C         140.0611  139.5735  166.3164 C.ar    1  UNL1        0.1378
      3 C         138.9040  138.6779  165.9859 C.ar    1  UNL1        0.1713
      4 N         138.0165  138.6028  167.1929 N.ar    1  UNL1       -0.1135
      5 N         138.6251  139.4520  168.2693 N.ar    1  UNL1       -0.0583
      6 F         140.8043  144.6042  170.0593 F       1  UNL1       -0.2041
      7 C         141.2748  143.2452  169.6331 C.ar    1  UNL1        0.1416
      8 C         142.6735  142.8034  169.9465 C.ar    1  UNL1        0.0297
      9 C         143.1441  141.4444  169.5202 C.ar    1  UNL1        0.0039
     10 C         142.2158  140.5272  168.7806 C.ar    1  UNL1        0.0193
     11 C         140.8170  140.9690  168.4672 C.ar    1  UNL1        0.0868
     12 C         140.3465  142.3280  168.8935 C.ar    1  UNL1        0.0488
     13 N         138.6746  137.9800  164.6782 N.pl3   1  UNL1       -0.3142
     14 H         138.0132  137.2533  164.6174 H       1  UNL1        0.1483
     15 C         139.4530  138.3894  163.4629 C.3     1  UNL1        0.1058
     16 C         140.5879  137.5374  162.9772 C.3     1  UNL1        0.0936
     17 N         141.4593  138.0178  161.8547 N.3     1  UNL1       -0.2690
     18 C         140.7384  138.4765  160.6217 C.3     1  UNL1        0.0748
     19 C         141.3165  139.0066  159.3431 C.3     1  UNL1        0.0494
     20 C         142.7581  139.2089  158.9816 C.3     1  UNL1        0.1437
     21 O         143.9778  138.9312  159.8094 O.3     1  UNL1       -0.3522
     22 C         144.0570  138.3824  161.2032 C.3     1  UNL1        0.1594
     23 C         142.9361  137.9759  162.1134 C.3     1  UNL1        0.1046
@<TRIPOS>BOND
     1     6     7    1
     2     7     8   ar
     3     8     9   ar
     4     9    10   ar
     5    10    11   ar
     6    11     1    1
     7     1     2   ar
     8     2     3   ar
     9     3    13    1
    10    13    15    1
    11    15    16    1
    12    16    17    1
    13    17    18    1
    14    18    19    1
    15    19    20    1
    16    20    21    1
    17    21    22    1
    18    22    23    1
    19     3     4   ar
    20     4     5   ar
    21    11    12   ar
    22    12     7   ar
    23     5     1   ar
    24    23    17    1
    25    13    14    1
@<TRIPOS>MOLECULE
*****
 23 25 0 0 0
SMALL
GASTEIGER

@<TRIPOS>ATOM
      1 N         142.1315  139.2324  163.1112 N.ar    1  UNL1       -0.2075
      2 C         140.8853  139.4091  162.2954 C.ar    1  UNL1        0.1378
      3 C         140.2285  138.0677  162.1560 C.ar    1  UNL1        0.1713
      4 N         141.0689  137.0621  162.8857 N.ar    1  UNL1       -0.1135
      5 N         142.2450  137.7819  163.4761 N.ar    1  UNL1       -0.0583
      6 F         143.0368  144.1155  164.6396 F       1  UNL1       -0.2041
      7 C         143.5479  142.7576  164.2590 C.ar    1  UNL1        0.1416
      8 C         145.0225  142.4832  164.2621 C.ar    1  UNL1        0.0297
      9 C         145.5336  141.1253  163.8816 C.ar    1  UNL1        0.0039
     10 C         144.5699  140.0417  163.4980 C.ar    1  UNL1        0.0193
     11 C         143.0952  140.3160  163.4949 C.ar    1  UNL1        0.0868
     12 C         142.5842  141.6740  163.8754 C.ar    1  UNL1        0.0488
     13 N         138.9550  137.7821  161.4168 N.pl3   1  UNL1       -0.3142
     14 H         138.9296  137.0711  160.7364 H       1  UNL1        0.1483
     15 C         137.7200  138.5800  161.7143 C.3     1  UNL1        0.1058
     16 C         137.3720  139.7675  160.8666 C.3     1  UNL1        0.0936
     17 N         137.7823  141.1439  161.2993 N.3     1  UNL1       -0.2690
     18 C         137.3770  141.5370  162.6891 C.3     1  UNL1        0.0748
     19 C         137.6330  142.8285  163.4079 C.3     1  UNL1        0.0494
     20 C         138.3573  144.0457  162.9145 C.3     1  UNL1        0.1437
     21 O         139.0046  144.2723  161.5804 O.3     1  UNL1       -0.3522
     22 C         139.0874  143.3375  160.4103 C.3     1  UNL1        0.1594
     23 C         138.5434  141.9452  160.2853 C.3     1  UNL1        0.1046
@<TRIPOS>BOND
     1     6     7    1
     2     7     8   ar
     3     8     9   ar
     4     9    10   ar
     5    10    11   ar
     6    11     1    1
     7     1     2   ar
     8     2     3   ar
     9     3    13    1
    10    13    15    1
    11    15    16    1
    12    16    17    1
    13    17    18    1
    14    18    19    1
    15    19    20    1
    16    20    21    1
    17    21    22    1
    18    22    23    1
    19     3     4   ar
    20     4     5   ar
    21    11    12   ar
    22    12     7   ar
    23     5     1   ar
    24    23    17    1
    25    13    14    1
@<TRIPOS>MOLECULE
*****
 23 25 0 0 0
SMALL
GASTEIGER

@<TRIPOS>ATOM
      1 N         139.4772  139.7722  167.7433 N.ar    1  UNL1       -0.2075
      2 C         139.9137  139.4990  166.3346 C.ar    1  UNL1        0.1378
      3 C         138.8364  138.7007  165.6621 C.ar    1  UNL1        0.1713
      4 N         137.7340  138.4807  166.6553 N.ar    1  UNL1       -0.1135
      5 N         138.1301  139.1430  167.9416 N.ar    1  UNL1       -0.0583
      6 F         140.8557  144.3018  169.8839 F       1  UNL1       -0.2041
      7 C         140.9411  142.8049  169.8435 C.ar    1  UNL1        0.1416
      8 C         141.8009  142.0756  170.8328 C.ar    1  UNL1        0.0297
      9 C         141.8863  140.5786  170.7923 C.ar    1  UNL1        0.0039
     10 C         141.1117  139.8108  169.7625 C.ar    1  UNL1        0.0193
     11 C         140.2518  140.5401  168.7732 C.ar    1  UNL1        0.0868
     12 C         140.1665  142.0370  168.8137 C.ar    1  UNL1        0.0488
     13 N         138.8576  138.2089  164.2452 N.pl3   1  UNL1       -0.3142
     14 H         138.3141  137.4299  163.9863 H       1  UNL1        0.1483
     15 C         139.7071  138.9039  163.2226 C.3     1  UNL1        0.1058
     16 C         140.9724  138.2612  162.7368 C.3     1  UNL1        0.0936
     17 N         142.2845  138.9691  162.9019 N.3     1  UNL1       -0.2690
     18 C         142.9020  138.8852  164.2664 C.3     1  UNL1        0.0748
     19 C         144.1932  139.4788  164.7467 C.3     1  UNL1        0.0494
     20 C         145.1856  140.3027  163.9812 C.3     1  UNL1        0.1437
     21 O         145.1321  140.7368  162.5464 O.3     1  UNL1       -0.3522
     22 C         144.0729  140.4540  161.5226 C.3     1  UNL1        0.1594
     23 C         142.8056  139.6672  161.6809 C.3     1  UNL1        0.1046
@<TRIPOS>BOND
     1     6     7    1
     2     7     8   ar
     3     8     9   ar
     4     9    10   ar
     5    10    11   ar
     6    11     1    1
     7     1     2   ar
     8     2     3   ar
     9     3    13    1
    10    13    15    1
    11    15    16    1
    12    16    17    1
    13    17    18    1
    14    18    19    1
    15    19    20    1
    16    20    21    1
    17    21    22    1
    18    22    23    1
    19     3     4   ar
    20     4     5   ar
    21    11    12   ar
    22    12     7   ar
    23     5     1   ar
    24    23    17    1
    25    13    14    1
