@<TRIPOS>MOLECULE
*****
 25 28 0 0 0
SMALL
GASTEIGER

@<TRIPOS>ATOM
      1 C         141.2790  143.8656  163.0538 C.ar    1  UNL1        0.0839
      2 C         142.5958  144.2187  163.6794 C.ar    1  UNL1        0.0192
      3 C         143.1207  143.4104  164.8288 C.ar    1  UNL1        0.0030
      4 C         142.3288  142.2491  165.3526 C.ar    1  UNL1        0.0174
      5 C         142.8537  141.4408  166.5021 C.ar    1  UNL1       -0.0027
      6 C         142.0619  140.2796  167.0258 C.ar    1  UNL1       -0.0207
      7 C         140.7450  139.9265  166.4001 C.ar    1  UNL1       -0.0027
      8 C         140.2202  140.7348  165.2507 C.ar    1  UNL1        0.0188
      9 C         141.0120  141.8961  164.7269 C.ar    1  UNL1        0.0812
     10 N         140.4872  142.7043  163.5775 N.ar    1  UNL1       -0.2453
     11 C         142.0758  143.4766  159.9131 C.3     1  UNL1        0.0518
     12 C         141.1204  144.4951  160.4607 C.ar    1  UNL1        0.0590
     13 C         140.7541  144.6739  161.9043 C.ar    1  UNL1        0.0517
     14 C         139.7708  145.8028  161.9966 C.ar    1  UNL1        0.1227
     15 N         139.5293  146.3217  160.6101 N.ar    1  UNL1       -0.1679
     16 N         140.3634  145.5135  159.6608 N.ar    1  UNL1       -0.2528
     17 C         140.4290  145.6923  158.1730 C.3     1  UNL1        0.1533
     18 C         142.5867  139.4713  168.1752 C.3     1  UNL1        0.0437
     19 C         142.3827  139.9484  169.5827 C.3     1  UNL1        0.0768
     20 N         141.7085  141.2637  169.8384 N.3     1  UNL1       -0.2737
     21 C         142.3935  142.5875  170.0069 C.3     1  UNL1        0.0721
     22 C         141.3394  143.6281  170.2432 C.3     1  UNL1        0.0187
     23 C         140.0029  142.9474  170.2208 C.3     1  UNL1        0.0174
     24 C         140.2310  141.4861  169.9707 C.3     1  UNL1        0.0576
     25 C         139.1683  140.4324  169.8703 C.3     1  UNL1        0.0173
@<TRIPOS>BOND
     1    11    12    1
     2    12    13   ar
     3    13     1    1
     4     1     2   ar
     5     2     3   ar
     6     3     4   ar
     7     4     5   ar
     8     5     6   ar
     9     6    18    1
    10    18    19    1
    11    19    20    1
    12    20    21    1
    13    21    22    1
    14    22    23    1
    15    23    24    1
    16    24    25    1
    17     6     7   ar
    18     7     8   ar
    19     8     9   ar
    20     9    10   ar
    21    13    14   ar
    22    14    15   ar
    23    15    16   ar
    24    16    17    1
    25    16    12   ar
    26    10     1   ar
    27     9     4   ar
    28    24    20    1
@<TRIPOS>MOLECULE
*****
 25 28 0 0 0
SMALL
GASTEIGER

@<TRIPOS>ATOM
      1 C         139.7280  138.8110  162.5163 C.ar    1  UNL1        0.0839
      2 C         139.0559  137.6581  163.2013 C.ar    1  UNL1        0.0192
      3 C         138.8033  137.7077  164.6790 C.ar    1  UNL1        0.0030
      4 C         139.2227  138.9101  165.4717 C.ar    1  UNL1        0.0174
      5 C         138.9700  138.9596  166.9495 C.ar    1  UNL1       -0.0027
      6 C         139.3894  140.1619  167.7422 C.ar    1  UNL1       -0.0207
      7 C         140.0615  141.3148  167.0571 C.ar    1  UNL1       -0.0027
      8 C         140.3142  141.2652  165.5794 C.ar    1  UNL1        0.0188
      9 C         139.8948  140.0629  164.7867 C.ar    1  UNL1        0.0812
     10 N         140.1475  140.0133  163.3090 N.ar    1  UNL1       -0.2453
     11 C         142.5097  137.8965  161.0755 C.3     1  UNL1        0.0518
     12 C         141.2594  138.3411  160.3763 C.ar    1  UNL1        0.0590
     13 C         139.9807  138.7614  161.0385 C.ar    1  UNL1        0.0517
     14 C         138.9993  139.1235  159.9636 C.ar    1  UNL1        0.1227
     15 N         139.6712  138.9270  158.6370 N.ar    1  UNL1       -0.1679
     16 N         141.0681  138.4434  158.8921 N.ar    1  UNL1       -0.2528
     17 C         142.0936  138.1192  157.8465 C.3     1  UNL1        0.1533
     18 C         139.1367  140.2115  169.2199 C.3     1  UNL1        0.0437
     19 C         140.2799  140.0738  170.1813 C.3     1  UNL1        0.0768
     20 N         141.4348  141.0287  170.1150 N.3     1  UNL1       -0.2737
     21 C         142.8771  140.6569  169.9369 C.3     1  UNL1        0.0721
     22 C         143.6839  141.9214  169.9270 C.3     1  UNL1        0.0187
     23 C         142.7402  143.0747  170.0989 C.3     1  UNL1        0.0174
     24 C         141.3502  142.5229  170.2151 C.3     1  UNL1        0.0576
     25 C         140.0959  143.3247  170.3990 C.3     1  UNL1        0.0173
@<TRIPOS>BOND
     1    11    12    1
     2    12    13   ar
     3    13     1    1
     4     1     2   ar
     5     2     3   ar
     6     3     4   ar
     7     4     5   ar
     8     5     6   ar
     9     6    18    1
    10    18    19    1
    11    19    20    1
    12    20    21    1
    13    21    22    1
    14    22    23    1
    15    23    24    1
    16    24    25    1
    17     6     7   ar
    18     7     8   ar
    19     8     9   ar
    20     9    10   ar
    21    13    14   ar
    22    14    15   ar
    23    15    16   ar
    24    16    17    1
    25    16    12   ar
    26    10     1   ar
    27     9     4   ar
    28    24    20    1
@<TRIPOS>MOLECULE
*****
 25 28 0 0 0
SMALL
GASTEIGER

@<TRIPOS>ATOM
      1 C         141.4540  138.3771  159.6013 C.ar    1  UNL1        0.0839
      2 C         139.9709  138.5420  159.4490 C.ar    1  UNL1        0.0192
      3 C         139.0733  138.3928  160.6414 C.ar    1  UNL1        0.0030
      4 C         139.6588  138.0787  161.9863 C.ar    1  UNL1        0.0174
      5 C         138.7611  137.9295  163.1788 C.ar    1  UNL1       -0.0027
      6 C         139.3466  137.6153  164.5236 C.ar    1  UNL1       -0.0207
      7 C         140.8297  137.4504  164.6759 C.ar    1  UNL1       -0.0027
      8 C         141.7273  137.5996  163.4834 C.ar    1  UNL1        0.0188
      9 C         141.1418  137.9138  162.1386 C.ar    1  UNL1        0.0812
     10 N         142.0394  138.0630  160.9462 N.ar    1  UNL1       -0.2453
     11 C         142.9043  141.1327  158.6250 C.3     1  UNL1        0.0518
     12 C         143.0183  139.7930  157.9601 C.ar    1  UNL1        0.0590
     13 C         142.3516  138.5263  158.4088 C.ar    1  UNL1        0.0517
     14 C         142.7403  137.4352  157.4558 C.ar    1  UNL1        0.1227
     15 N         143.6471  138.0274  156.4180 N.ar    1  UNL1       -0.1679
     16 N         143.8189  139.4846  156.7297 N.ar    1  UNL1       -0.2528
     17 C         144.6461  140.4619  155.9482 C.3     1  UNL1        0.1533
     18 C         138.4490  137.4661  165.7160 C.3     1  UNL1        0.0437
     19 C         138.0183  138.6786  166.4870 C.3     1  UNL1        0.0768
     20 N         138.9479  139.8474  166.6274 N.3     1  UNL1       -0.2737
     21 C         139.9565  140.0456  167.7200 C.3     1  UNL1        0.0721
     22 C         140.6641  141.3438  167.4677 C.3     1  UNL1        0.0187
     23 C         140.0929  141.9481  166.2192 C.3     1  UNL1        0.0174
     24 C         139.0322  141.0232  165.6999 C.3     1  UNL1        0.0576
     25 C         138.2018  141.2368  164.4692 C.3     1  UNL1        0.0173
@<TRIPOS>BOND
     1    11    12    1
     2    12    13   ar
     3    13     1    1
     4     1     2   ar
     5     2     3   ar
     6     3     4   ar
     7     4     5   ar
     8     5     6   ar
     9     6    18    1
    10    18    19    1
    11    19    20    1
    12    20    21    1
    13    21    22    1
    14    22    23    1
    15    23    24    1
    16    24    25    1
    17     6     7   ar
    18     7     8   ar
    19     8     9   ar
    20     9    10   ar
    21    13    14   ar
    22    14    15   ar
    23    15    16   ar
    24    16    17    1
    25    16    12   ar
    26    10     1   ar
    27     9     4   ar
    28    24    20    1
@<TRIPOS>MOLECULE
*****
 25 28 0 0 0
SMALL
GASTEIGER

@<TRIPOS>ATOM
      1 C         141.5879  143.1869  162.3302 C.ar    1  UNL1        0.0839
      2 C         141.7393  144.1482  163.4716 C.ar    1  UNL1        0.0192
      3 C         141.3398  143.7360  164.8574 C.ar    1  UNL1        0.0030
      4 C         140.7887  142.3624  165.1017 C.ar    1  UNL1        0.0174
      5 C         140.3892  141.9502  166.4876 C.ar    1  UNL1       -0.0027
      6 C         139.8381  140.5767  166.7319 C.ar    1  UNL1       -0.0207
      7 C         139.6866  139.6153  165.5904 C.ar    1  UNL1       -0.0027
      8 C         140.0862  140.0275  164.2047 C.ar    1  UNL1        0.0188
      9 C         140.6372  141.4011  163.9603 C.ar    1  UNL1        0.0812
     10 N         141.0368  141.8133  162.5746 N.ar    1  UNL1       -0.2453
     11 C         140.2122  145.5608  160.5634 C.3     1  UNL1        0.0518
     12 C         141.3551  144.6903  160.1323 C.ar    1  UNL1        0.0590
     13 C         141.9874  143.5991  160.9444 C.ar    1  UNL1        0.0517
     14 C         143.0894  142.9925  160.1273 C.ar    1  UNL1        0.1227
     15 N         143.1382  143.7087  158.8103 N.ar    1  UNL1       -0.1679
     16 N         142.0662  144.7581  158.8133 N.ar    1  UNL1       -0.2528
     17 C         141.7594  145.7083  157.6940 C.3     1  UNL1        0.1533
     18 C         139.4386  140.1645  168.1177 C.3     1  UNL1        0.0437
     19 C         140.4887  139.9344  169.1639 C.3     1  UNL1        0.0768
     20 N         141.4894  141.0087  169.4710 N.3     1  UNL1       -0.2737
     21 C         142.9631  140.9447  169.1988 C.3     1  UNL1        0.0721
     22 C         143.5767  142.2321  169.6637 C.3     1  UNL1        0.0187
     23 C         142.4822  143.0917  170.2233 C.3     1  UNL1        0.0174
     24 C         141.1922  142.3356  170.1042 C.3     1  UNL1        0.0576
     25 C         139.8420  142.8212  170.5414 C.3     1  UNL1        0.0173
@<TRIPOS>BOND
     1    11    12    1
     2    12    13   ar
     3    13     1    1
     4     1     2   ar
     5     2     3   ar
     6     3     4   ar
     7     4     5   ar
     8     5     6   ar
     9     6    18    1
    10    18    19    1
    11    19    20    1
    12    20    21    1
    13    21    22    1
    14    22    23    1
    15    23    24    1
    16    24    25    1
    17     6     7   ar
    18     7     8   ar
    19     8     9   ar
    20     9    10   ar
    21    13    14   ar
    22    14    15   ar
    23    15    16   ar
    24    16    17    1
    25    16    12   ar
    26    10     1   ar
    27     9     4   ar
    28    24    20    1
@<TRIPOS>MOLECULE
*****
 25 28 0 0 0
SMALL
GASTEIGER

@<TRIPOS>ATOM
      1 C         139.2398  140.9940  163.1139 C.ar    1  UNL1        0.0839
      2 C         138.2050  140.6129  164.1307 C.ar    1  UNL1        0.0192
      3 C         138.6267  140.1752  165.5020 C.ar    1  UNL1        0.0030
      4 C         140.0831  140.1185  165.8565 C.ar    1  UNL1        0.0174
      5 C         140.5047  139.6807  167.2279 C.ar    1  UNL1       -0.0027
      6 C         141.9611  139.6241  167.5823 C.ar    1  UNL1       -0.0207
      7 C         142.9959  140.0052  166.5654 C.ar    1  UNL1       -0.0027
      8 C         142.5743  140.4430  165.1941 C.ar    1  UNL1        0.0188
      9 C         141.1179  140.4996  164.8396 C.ar    1  UNL1        0.0812
     10 N         140.6962  140.9374  163.4683 N.ar    1  UNL1       -0.2453
     11 C         138.8759  139.0604  160.5103 C.3     1  UNL1        0.0518
     12 C         138.6509  140.5430  160.5458 C.ar    1  UNL1        0.0590
     13 C         138.8182  141.4318  161.7425 C.ar    1  UNL1        0.0517
     14 C         138.4898  142.8352  161.3270 C.ar    1  UNL1        0.1227
     15 N         138.1196  142.8138  159.8736 N.ar    1  UNL1       -0.1679
     16 N         138.2191  141.3971  159.3907 N.ar    1  UNL1       -0.2528
     17 C         137.9366  140.9185  157.9975 C.3     1  UNL1        0.1533
     18 C         142.3828  139.1863  168.9536 C.3     1  UNL1        0.0437
     19 C         141.7575  139.8109  170.1657 C.3     1  UNL1        0.0768
     20 N         141.3575  141.2564  170.1427 N.3     1  UNL1       -0.2737
     21 C         139.9614  141.7872  170.2813 C.3     1  UNL1        0.0721
     22 C         140.0244  143.2837  170.2013 C.3     1  UNL1        0.0187
     23 C         141.4595  143.6778  170.0133 C.3     1  UNL1        0.0174
     24 C         142.2834  142.4248  169.9771 C.3     1  UNL1        0.0576
     25 C         143.7718  142.3530  169.8053 C.3     1  UNL1        0.0173
@<TRIPOS>BOND
     1    11    12    1
     2    12    13   ar
     3    13     1    1
     4     1     2   ar
     5     2     3   ar
     6     3     4   ar
     7     4     5   ar
     8     5     6   ar
     9     6    18    1
    10    18    19    1
    11    19    20    1
    12    20    21    1
    13    21    22    1
    14    22    23    1
    15    23    24    1
    16    24    25    1
    17     6     7   ar
    18     7     8   ar
    19     8     9   ar
    20     9    10   ar
    21    13    14   ar
    22    14    15   ar
    23    15    16   ar
    24    16    17    1
    25    16    12   ar
    26    10     1   ar
    27     9     4   ar
    28    24    20    1
@<TRIPOS>MOLECULE
*****
 25 28 0 0 0
SMALL
GASTEIGER

@<TRIPOS>ATOM
      1 C         142.3967  138.2632  159.9127 C.ar    1  UNL1        0.0839
      2 C         143.6152  139.0860  160.2098 C.ar    1  UNL1        0.0192
      3 C         144.0258  139.3318  161.6314 C.ar    1  UNL1        0.0030
      4 C         143.2180  138.7548  162.7559 C.ar    1  UNL1        0.0174
      5 C         143.6286  139.0006  164.1775 C.ar    1  UNL1       -0.0027
      6 C         142.8208  138.4236  165.3020 C.ar    1  UNL1       -0.0207
      7 C         141.6023  137.6007  165.0048 C.ar    1  UNL1       -0.0027
      8 C         141.1917  137.3549  163.5833 C.ar    1  UNL1        0.0188
      9 C         141.9995  137.9320  162.4588 C.ar    1  UNL1        0.0812
     10 N         141.5889  137.6862  161.0372 N.ar    1  UNL1       -0.2453
     11 C         139.6328  139.2850  158.5105 C.3     1  UNL1        0.0518
     12 C         140.7156  138.4871  157.8466 C.ar    1  UNL1        0.0590
     13 C         141.9861  138.0174  158.4911 C.ar    1  UNL1        0.0517
     14 C         142.7737  137.2588  157.4644 C.ar    1  UNL1        0.1227
     15 N         141.9901  137.2596  156.1854 N.ar    1  UNL1       -0.1679
     16 N         140.7180  138.0188  156.4216 N.ar    1  UNL1       -0.2528
     17 C         139.6381  138.2661  155.4103 C.3     1  UNL1        0.1533
     18 C         143.2314  138.6693  166.7236 C.3     1  UNL1        0.0437
     19 C         142.6208  139.8013  167.4957 C.3     1  UNL1        0.0768
     20 N         141.7963  140.8342  166.7863 N.3     1  UNL1       -0.2737
     21 C         142.3199  142.0603  166.0988 C.3     1  UNL1        0.0721
     22 C         141.1507  142.8063  165.5275 C.3     1  UNL1        0.0187
     23 C         139.9045  142.0413  165.8621 C.3     1  UNL1        0.0174
     24 C         140.3036  140.8225  166.6401 C.3     1  UNL1        0.0576
     25 C         139.3732  139.7758  167.1774 C.3     1  UNL1        0.0173
@<TRIPOS>BOND
     1    11    12    1
     2    12    13   ar
     3    13     1    1
     4     1     2   ar
     5     2     3   ar
     6     3     4   ar
     7     4     5   ar
     8     5     6   ar
     9     6    18    1
    10    18    19    1
    11    19    20    1
    12    20    21    1
    13    21    22    1
    14    22    23    1
    15    23    24    1
    16    24    25    1
    17     6     7   ar
    18     7     8   ar
    19     8     9   ar
    20     9    10   ar
    21    13    14   ar
    22    14    15   ar
    23    15    16   ar
    24    16    17    1
    25    16    12   ar
    26    10     1   ar
    27     9     4   ar
    28    24    20    1
@<TRIPOS>MOLECULE
*****
 25 28 0 0 0
SMALL
GASTEIGER

@<TRIPOS>ATOM
      1 C         141.9207  142.0718  167.0729 C.ar    1  UNL1        0.0839
      2 C         143.1069  142.3582  166.2007 C.ar    1  UNL1        0.0192
      3 C         142.9392  143.1668  164.9485 C.ar    1  UNL1        0.0030
      4 C         141.5853  143.6889  164.5685 C.ar    1  UNL1        0.0174
      5 C         141.4177  144.4975  163.3162 C.ar    1  UNL1       -0.0027
      6 C         140.0638  145.0196  162.9362 C.ar    1  UNL1       -0.0207
      7 C         138.8775  144.7331  163.8085 C.ar    1  UNL1       -0.0027
      8 C         139.0452  143.9245  165.0607 C.ar    1  UNL1        0.0188
      9 C         140.3991  143.4024  165.4407 C.ar    1  UNL1        0.0812
     10 N         140.5668  142.5939  166.6929 N.ar    1  UNL1       -0.2453
     11 C         142.9220  138.9700  167.2336 C.3     1  UNL1        0.0518
     12 C         142.5486  139.8374  168.3990 C.ar    1  UNL1        0.0590
     13 C         142.0884  141.2631  168.3251 C.ar    1  UNL1        0.0517
     14 C         141.8252  141.7383  169.7233 C.ar    1  UNL1        0.1227
     15 N         142.1228  140.6062  170.6613 N.ar    1  UNL1       -0.1679
     16 N         142.5699  139.4314  169.8428 N.ar    1  UNL1       -0.2528
     17 C         142.9684  138.0867  170.3748 C.3     1  UNL1        0.1533
     18 C         139.8961  145.8282  161.6840 C.3     1  UNL1        0.0437
     19 C         140.8244  145.6170  160.5249 C.3     1  UNL1        0.0768
     20 N         140.3038  145.0380  159.2428 N.3     1  UNL1       -0.2737
     21 C         140.2805  145.7259  157.9101 C.3     1  UNL1        0.0721
     22 C         139.6774  144.7825  156.9120 C.3     1  UNL1        0.0187
     23 C         139.3278  143.5115  157.6280 C.3     1  UNL1        0.0174
     24 C         139.7150  143.6695  159.0685 C.3     1  UNL1        0.0576
     25 C         139.5435  142.6397  160.1455 C.3     1  UNL1        0.0173
@<TRIPOS>BOND
     1    11    12    1
     2    12    13   ar
     3    13     1    1
     4     1     2   ar
     5     2     3   ar
     6     3     4   ar
     7     4     5   ar
     8     5     6   ar
     9     6    18    1
    10    18    19    1
    11    19    20    1
    12    20    21    1
    13    21    22    1
    14    22    23    1
    15    23    24    1
    16    24    25    1
    17     6     7   ar
    18     7     8   ar
    19     8     9   ar
    20     9    10   ar
    21    13    14   ar
    22    14    15   ar
    23    15    16   ar
    24    16    17    1
    25    16    12   ar
    26    10     1   ar
    27     9     4   ar
    28    24    20    1
@<TRIPOS>MOLECULE
*****
 25 28 0 0 0
SMALL
GASTEIGER

@<TRIPOS>ATOM
      1 C         138.3969  140.0983  160.4599 C.ar    1  UNL1        0.0839
      2 C         138.0548  141.4049  161.1125 C.ar    1  UNL1        0.0192
      3 C         137.9953  141.5032  162.6080 C.ar    1  UNL1        0.0030
      4 C         138.2779  140.2951  163.4510 C.ar    1  UNL1        0.0174
      5 C         138.2183  140.3935  164.9466 C.ar    1  UNL1       -0.0027
      6 C         138.5009  139.1854  165.7896 C.ar    1  UNL1       -0.0207
      7 C         138.8430  137.8788  165.1369 C.ar    1  UNL1       -0.0027
      8 C         138.9025  137.7804  163.6413 C.ar    1  UNL1        0.0188
      9 C         138.6200  138.9886  162.7984 C.ar    1  UNL1        0.0812
     10 N         138.6795  138.8902  161.3028 N.ar    1  UNL1       -0.2453
     11 C         140.7059  138.5754  158.7282 C.3     1  UNL1        0.0518
     12 C         139.5178  139.2999  158.1683 C.ar    1  UNL1        0.0590
     13 C         138.4565  139.9999  158.9642 C.ar    1  UNL1        0.0517
     14 C         137.4651  140.5842  158.0020 C.ar    1  UNL1        0.1227
     15 N         137.9138  140.2453  156.6114 N.ar    1  UNL1       -0.1679
     16 N         139.1825  139.4515  156.7142 N.ar    1  UNL1       -0.2528
     17 C         139.9763  138.9053  155.5646 C.3     1  UNL1        0.1533
     18 C         138.4414  139.2838  167.2851 C.3     1  UNL1        0.0437
     19 C         139.5689  139.9232  168.0402 C.3     1  UNL1        0.0768
     20 N         140.8269  140.3125  167.3220 N.3     1  UNL1       -0.2737
     21 C         141.9761  139.4035  167.0008 C.3     1  UNL1        0.0721
     22 C         143.0160  140.2083  166.2792 C.3     1  UNL1        0.0187
     23 C         142.5095  141.6147  166.1544 C.3     1  UNL1        0.0174
     24 C         141.1566  141.6791  166.7989 C.3     1  UNL1        0.0576
     25 C         140.2862  142.8963  166.9021 C.3     1  UNL1        0.0173
@<TRIPOS>BOND
     1    11    12    1
     2    12    13   ar
     3    13     1    1
     4     1     2   ar
     5     2     3   ar
     6     3     4   ar
     7     4     5   ar
     8     5     6   ar
     9     6    18    1
    10    18    19    1
    11    19    20    1
    12    20    21    1
    13    21    22    1
    14    22    23    1
    15    23    24    1
    16    24    25    1
    17     6     7   ar
    18     7     8   ar
    19     8     9   ar
    20     9    10   ar
    21    13    14   ar
    22    14    15   ar
    23    15    16   ar
    24    16    17    1
    25    16    12   ar
    26    10     1   ar
    27     9     4   ar
    28    24    20    1
@<TRIPOS>MOLECULE
*****
 25 28 0 0 0
SMALL
GASTEIGER

@<TRIPOS>ATOM
      1 C         139.4239  143.1586  161.6817 C.ar    1  UNL1        0.0839
      2 C         137.9950  143.0743  162.1304 C.ar    1  UNL1        0.0192
      3 C         137.6450  142.3255  163.3820 C.ar    1  UNL1        0.0030
      4 C         138.7237  141.6609  164.1850 C.ar    1  UNL1        0.0174
      5 C         138.3735  140.9121  165.4366 C.ar    1  UNL1       -0.0027
      6 C         139.4522  140.2475  166.2396 C.ar    1  UNL1       -0.0207
      7 C         140.8811  140.3318  165.7909 C.ar    1  UNL1       -0.0027
      8 C         141.2312  141.0806  164.5392 C.ar    1  UNL1        0.0188
      9 C         140.1525  141.7452  163.7363 C.ar    1  UNL1        0.0812
     10 N         140.5026  142.4940  162.4846 N.ar    1  UNL1       -0.2453
     11 C         138.8797  142.1488  158.6265 C.3     1  UNL1        0.0518
     12 C         139.5239  143.4433  159.0257 C.ar    1  UNL1        0.0590
     13 C         139.7740  143.9075  160.4300 C.ar    1  UNL1        0.0517
     14 C         140.4357  145.2519  160.3629 C.ar    1  UNL1        0.1227
     15 N         140.5946  145.6187  158.9171 N.ar    1  UNL1       -0.1679
     16 N         140.0310  144.5009  158.0907 N.ar    1  UNL1       -0.2528
     17 C         139.9830  144.4497  156.5923 C.3     1  UNL1        0.1533
     18 C         139.1021  139.4987  167.4912 C.3     1  UNL1        0.0437
     19 C         139.3332  140.1298  168.8323 C.3     1  UNL1        0.0768
     20 N         140.7134  140.5616  169.2302 N.3     1  UNL1       -0.2737
     21 C         141.8097  139.6650  169.7244 C.3     1  UNL1        0.0721
     22 C         143.0136  140.5152  170.0034 C.3     1  UNL1        0.0187
     23 C         142.6613  141.9373  169.6815 C.3     1  UNL1        0.0174
     24 C         141.2398  141.9660  169.2036 C.3     1  UNL1        0.0576
     25 C         140.4783  143.1850  168.7746 C.3     1  UNL1        0.0173
@<TRIPOS>BOND
     1    11    12    1
     2    12    13   ar
     3    13     1    1
     4     1     2   ar
     5     2     3   ar
     6     3     4   ar
     7     4     5   ar
     8     5     6   ar
     9     6    18    1
    10    18    19    1
    11    19    20    1
    12    20    21    1
    13    21    22    1
    14    22    23    1
    15    23    24    1
    16    24    25    1
    17     6     7   ar
    18     7     8   ar
    19     8     9   ar
    20     9    10   ar
    21    13    14   ar
    22    14    15   ar
    23    15    16   ar
    24    16    17    1
    25    16    12   ar
    26    10     1   ar
    27     9     4   ar
    28    24    20    1
