@<TRIPOS>MOLECULE
*****
 36 40 0 0 0
SMALL
GASTEIGER

@<TRIPOS>ATOM
      1 C         141.3436  139.2468  161.0596 C.ar    1  UNL1        0.0932
      2 C         142.0571  138.0211  160.5709 C.ar    1  UNL1        0.0405
      3 C         143.4410  137.7135  161.0610 C.ar    1  UNL1        0.1034
      4 N         144.1114  138.6314  162.0399 N.ar    1  UNL1       -0.2120
      5 C         143.3979  139.8569  162.5286 C.ar    1  UNL1        0.2207
      6 N         142.0140  140.1646  162.0384 N.ar    1  UNL1       -0.2130
      7 N         137.2832  140.4296  157.8982 N.pl3   1  UNL1       -0.3375
      8 C         138.0933  140.0981  159.1163 C.ar    1  UNL1        0.1567
      9 N         137.5671  139.9576  160.5139 N.ar    1  UNL1       -0.2244
     10 C         138.7206  139.6216  161.4120 C.ar    1  UNL1        0.0907
     11 C         139.9598  139.5544  160.5694 C.ar    1  UNL1        0.0674
     12 S         139.5722  139.8489  159.1506 S.2     1  UNL1       -0.0505
     13 H         136.3129  140.5766  157.9774 H       1  UNL1        0.1442
     14 H         137.7216  140.5002  157.0196 H       1  UNL1        0.1442
     15 C         138.6476  139.3929  162.8927 C.ar    1  UNL1        0.0184
     16 C         138.3034  140.5280  163.8108 C.ar    1  UNL1        0.0038
     17 C         138.2305  140.2993  165.2915 C.ar    1  UNL1        0.0297
     18 C         138.5018  138.9355  165.8540 C.ar    1  UNL1        0.1401
     19 F         138.4289  138.7068  167.3347 F       1  UNL1       -0.2042
     20 C         138.8460  137.8004  164.9358 C.ar    1  UNL1        0.0297
     21 C         138.9189  138.0291  163.4552 C.ar    1  UNL1        0.0038
     22 N         144.0682  140.7748  163.5074 N.pl3   1  UNL1       -0.2825
     23 H         144.9049  141.2312  163.2608 H       1  UNL1        0.1551
     24 C         143.4636  140.9975  164.8620 C.ar    1  UNL1        0.0505
     25 C         142.5753  139.9515  165.4679 C.ar    1  UNL1        0.0159
     26 C         141.9707  140.1742  166.8224 C.ar    1  UNL1        0.0158
     27 C         142.2543  141.4427  167.5712 C.ar    1  UNL1        0.0480
     28 C         143.1425  142.4886  166.9652 C.ar    1  UNL1        0.0158
     29 C         143.7472  142.2660  165.6106 C.ar    1  UNL1        0.0159
     30 N         141.6497  141.6654  168.9257 N.pl3   1  UNL1       -0.3047
     31 C         142.1139  140.8516  170.0972 C.3     1  UNL1        0.1079
     32 C         141.5094  141.0742  171.4518 C.3     1  UNL1        0.0903
     33 N         140.4405  142.1106  171.6349 N.3     1  UNL1       -0.2946
     34 C         139.9763  142.9243  170.4634 C.3     1  UNL1        0.0903
     35 C         140.5808  142.7017  169.1088 C.3     1  UNL1        0.1079
     36 H         140.7857  142.7695  172.3328 H       1  UNL1        0.1233
@<TRIPOS>BOND
     1     7     8    1
     2     8     9   ar
     3     9    10   ar
     4    10    15    1
     5    15    16   ar
     6    16    17   ar
     7    17    18   ar
     8    18    19    1
     9    18    20   ar
    10    20    21   ar
    11    10    11   ar
    12    11     1    1
    13     1     2   ar
    14     2     3   ar
    15     3     4   ar
    16     4     5   ar
    17     5    22    1
    18    22    24    1
    19    24    25   ar
    20    25    26   ar
    21    26    27   ar
    22    27    30    1
    23    30    31    1
    24    31    32    1
    25    32    33    1
    26    33    34    1
    27    34    35    1
    28    27    28   ar
    29    28    29   ar
    30     5     6   ar
    31    11    12   ar
    32    12     8   ar
    33    21    15   ar
    34     6     1   ar
    35    29    24   ar
    36    35    30    1
    37     7    13    1
    38     7    14    1
    39    22    23    1
    40    33    36    1
@<TRIPOS>MOLECULE
*****
 36 40 0 0 0
SMALL
GASTEIGER

@<TRIPOS>ATOM
      1 C         141.3196  144.0368  161.0816 C.ar    1  UNL1        0.0932
      2 C         140.9058  145.3939  160.5945 C.ar    1  UNL1        0.0405
      3 C         139.6387  146.0177  161.0998 C.ar    1  UNL1        0.1034
      4 N         138.7855  145.2847  162.0921 N.ar    1  UNL1       -0.2120
      5 C         139.1994  143.9277  162.5792 C.ar    1  UNL1        0.2207
      6 N         140.4664  143.3038  162.0739 N.ar    1  UNL1       -0.2130
      7 N         145.0928  142.2398  157.8545 N.pl3   1  UNL1       -0.3375
      8 C         144.3211  142.5869  159.0930 C.ar    1  UNL1        0.1567
      9 N         144.7519  142.3187  160.5045 N.ar    1  UNL1       -0.2244
     10 C         143.6800  142.8292  161.4213 C.ar    1  UNL1        0.0907
     11 C         142.5867  143.4129  160.5764 C.ar    1  UNL1        0.0674
     12 S         142.9828  143.2631  159.1374 S.2     1  UNL1       -0.0505
     13 H         145.9676  141.7941  157.9283 H       1  UNL1        0.1442
     14 H         144.7247  142.4576  156.9678 H       1  UNL1        0.1442
     15 C         143.6983  142.7670  162.9199 C.ar    1  UNL1        0.0184
     16 C         144.2028  143.9359  163.7131 C.ar    1  UNL1        0.0038
     17 C         144.2210  143.8736  165.2116 C.ar    1  UNL1        0.0297
     18 C         143.7348  142.6424  165.9171 C.ar    1  UNL1        0.1401
     19 F         143.7531  142.5801  167.4157 F       1  UNL1       -0.2042
     20 C         143.2304  141.4734  165.1240 C.ar    1  UNL1        0.0297
     21 C         143.2121  141.5357  163.6254 C.ar    1  UNL1        0.0038
     22 N         138.3462  143.1946  163.5715 N.pl3   1  UNL1       -0.2825
     23 H         137.3825  143.0826  163.4043 H       1  UNL1        0.1551
     24 C         138.9614  142.6321  164.8185 C.ar    1  UNL1        0.0505
     25 C         139.7244  143.5283  165.7485 C.ar    1  UNL1        0.0159
     26 C         140.3395  142.9658  166.9955 C.ar    1  UNL1        0.0158
     27 C         140.1917  141.5072  167.3128 C.ar    1  UNL1        0.0480
     28 C         139.4288  140.6110  166.3828 C.ar    1  UNL1        0.0158
     29 C         138.8135  141.1734  165.1357 C.ar    1  UNL1        0.0159
     30 N         140.8069  140.9447  168.5598 N.pl3   1  UNL1       -0.3047
     31 C         140.3935  141.4699  169.9027 C.3     1  UNL1        0.1079
     32 C         141.0086  140.9074  171.1498 C.3     1  UNL1        0.0903
     33 N         142.0372  139.8198  171.0540 N.3     1  UNL1       -0.2946
     34 C         142.4505  139.2946  169.7111 C.3     1  UNL1        0.0903
     35 C         141.8354  139.8570  168.4640 C.3     1  UNL1        0.1079
     36 H         141.6759  139.0256  171.5823 H       1  UNL1        0.1233
@<TRIPOS>BOND
     1     7     8    1
     2     8     9   ar
     3     9    10   ar
     4    10    15    1
     5    15    16   ar
     6    16    17   ar
     7    17    18   ar
     8    18    19    1
     9    18    20   ar
    10    20    21   ar
    11    10    11   ar
    12    11     1    1
    13     1     2   ar
    14     2     3   ar
    15     3     4   ar
    16     4     5   ar
    17     5    22    1
    18    22    24    1
    19    24    25   ar
    20    25    26   ar
    21    26    27   ar
    22    27    30    1
    23    30    31    1
    24    31    32    1
    25    32    33    1
    26    33    34    1
    27    34    35    1
    28    27    28   ar
    29    28    29   ar
    30     5     6   ar
    31    11    12   ar
    32    12     8   ar
    33    21    15   ar
    34     6     1   ar
    35    29    24   ar
    36    35    30    1
    37     7    13    1
    38     7    14    1
    39    22    23    1
    40    33    36    1
@<TRIPOS>MOLECULE
*****
 36 40 0 0 0
SMALL
GASTEIGER

@<TRIPOS>ATOM
      1 C         141.0965  140.3663  160.9015 C.ar    1  UNL1        0.0932
      2 C         140.0283  139.7236  160.0673 C.ar    1  UNL1        0.0405
      3 C         139.4588  138.3959  160.4708 C.ar    1  UNL1        0.1034
      4 N         139.9575  137.7108  161.7085 N.ar    1  UNL1       -0.2120
      5 C         141.0257  138.3535  162.5427 C.ar    1  UNL1        0.2207
      6 N         141.5952  139.6812  162.1392 N.ar    1  UNL1       -0.2130
      7 N         143.2392  144.2499  158.0367 N.pl3   1  UNL1       -0.3375
      8 C         142.6509  143.4791  159.1812 C.ar    1  UNL1        0.1567
      9 N         142.4337  143.9952  160.5727 N.ar    1  UNL1       -0.2244
     10 C         141.8250  142.8919  161.3866 C.ar    1  UNL1        0.0907
     11 C         141.6660  141.6940  160.4980 C.ar    1  UNL1        0.0674
     12 S         142.1764  142.0568  159.1350 S.2     1  UNL1       -0.0505
     13 H         143.5227  145.1838  158.1662 H       1  UNL1        0.1442
     14 H         143.3419  143.8219  157.1561 H       1  UNL1        0.1442
     15 C         141.4425  142.9726  162.8348 C.ar    1  UNL1        0.0184
     16 C         140.0250  143.2753  163.2204 C.ar    1  UNL1        0.0038
     17 C         139.6425  143.3559  164.6685 C.ar    1  UNL1        0.0297
     18 C         140.6777  143.1337  165.7311 C.ar    1  UNL1        0.1401
     19 F         140.2952  143.2143  167.1793 F       1  UNL1       -0.2042
     20 C         142.0953  142.8309  165.3455 C.ar    1  UNL1        0.0297
     21 C         142.4777  142.7504  163.8974 C.ar    1  UNL1        0.0038
     22 N         141.5245  137.6684  163.7805 N.pl3   1  UNL1       -0.2825
     23 H         141.8023  136.7247  163.7428 H       1  UNL1        0.1551
     24 C         141.6000  138.4213  165.0756 C.ar    1  UNL1        0.0505
     25 C         142.8994  138.5036  165.8206 C.ar    1  UNL1        0.0159
     26 C         142.9749  139.2564  167.1158 C.ar    1  UNL1        0.0158
     27 C         141.7511  139.9270  167.6661 C.ar    1  UNL1        0.0480
     28 C         140.4518  139.8446  166.9211 C.ar    1  UNL1        0.0158
     29 C         140.3762  139.0917  165.6259 C.ar    1  UNL1        0.0159
     30 N         141.8266  140.6798  168.9613 N.pl3   1  UNL1       -0.3047
     31 C         142.7148  141.8828  169.0788 C.3     1  UNL1        0.1079
     32 C         142.7904  142.6357  170.3739 C.3     1  UNL1        0.0903
     33 N         141.9776  142.1855  171.5516 N.3     1  UNL1       -0.2946
     34 C         141.0894  140.9826  171.4340 C.3     1  UNL1        0.0903
     35 C         141.0138  140.2297  170.1389 C.3     1  UNL1        0.1079
     36 H         141.3792  142.9690  171.8130 H       1  UNL1        0.1233
@<TRIPOS>BOND
     1     7     8    1
     2     8     9   ar
     3     9    10   ar
     4    10    15    1
     5    15    16   ar
     6    16    17   ar
     7    17    18   ar
     8    18    19    1
     9    18    20   ar
    10    20    21   ar
    11    10    11   ar
    12    11     1    1
    13     1     2   ar
    14     2     3   ar
    15     3     4   ar
    16     4     5   ar
    17     5    22    1
    18    22    24    1
    19    24    25   ar
    20    25    26   ar
    21    26    27   ar
    22    27    30    1
    23    30    31    1
    24    31    32    1
    25    32    33    1
    26    33    34    1
    27    34    35    1
    28    27    28   ar
    29    28    29   ar
    30     5     6   ar
    31    11    12   ar
    32    12     8   ar
    33    21    15   ar
    34     6     1   ar
    35    29    24   ar
    36    35    30    1
    37     7    13    1
    38     7    14    1
    39    22    23    1
    40    33    36    1
@<TRIPOS>MOLECULE
*****
 36 40 0 0 0
SMALL
GASTEIGER

@<TRIPOS>ATOM
      1 C         139.2198  142.7805  160.2891 C.ar    1  UNL1        0.0932
      2 C         138.7813  141.5925  159.4851 C.ar    1  UNL1        0.0405
      3 C         137.9131  140.5420  160.1117 C.ar    1  UNL1        0.1034
      4 N         137.4835  140.6794  161.5424 N.ar    1  UNL1       -0.2120
      5 C         137.9221  141.8674  162.3463 C.ar    1  UNL1        0.2207
      6 N         138.7903  142.9179  161.7196 N.ar    1  UNL1       -0.2130
      7 N         141.1390  146.3388  156.8926 N.pl3   1  UNL1       -0.3375
      8 C         140.9701  145.4666  158.1012 C.ar    1  UNL1        0.1567
      9 N         141.8778  145.4286  159.2948 N.ar    1  UNL1       -0.2244
     10 C         141.3326  144.4177  160.2597 C.ar    1  UNL1        0.0907
     11 C         140.0880  143.8310  159.6624 C.ar    1  UNL1        0.0674
     12 S         139.8640  144.4792  158.3284 S.2     1  UNL1       -0.0505
     13 H         141.9018  146.9585  156.8355 H       1  UNL1        0.1442
     14 H         140.4870  146.2915  156.1565 H       1  UNL1        0.1442
     15 C         141.9276  144.0570  161.5886 C.ar    1  UNL1        0.0184
     16 C         141.8370  145.0181  162.7367 C.ar    1  UNL1        0.0038
     17 C         142.4320  144.6573  164.0655 C.ar    1  UNL1        0.0297
     18 C         143.1175  143.3354  164.2462 C.ar    1  UNL1        0.1401
     19 F         143.7125  142.9747  165.5752 F       1  UNL1       -0.2042
     20 C         143.2081  142.3743  163.0982 C.ar    1  UNL1        0.0297
     21 C         142.6131  142.7351  161.7694 C.ar    1  UNL1        0.0038
     22 N         137.4925  142.0049  163.7769 N.pl3   1  UNL1       -0.2825
     23 H         136.5603  142.2383  163.9907 H       1  UNL1        0.1551
     24 C         138.4833  141.7867  164.8817 C.ar    1  UNL1        0.0505
     25 C         139.3412  142.9227  165.3549 C.ar    1  UNL1        0.0159
     26 C         140.3320  142.7045  166.4597 C.ar    1  UNL1        0.0158
     27 C         140.4650  141.3505  167.0915 C.ar    1  UNL1        0.0480
     28 C         139.6071  140.2147  166.6183 C.ar    1  UNL1        0.0158
     29 C         138.6163  140.4327  165.5134 C.ar    1  UNL1        0.0159
     30 N         141.4558  141.1324  168.1963 N.pl3   1  UNL1       -0.3047
     31 C         142.4475  142.2050  168.5369 C.3     1  UNL1        0.1079
     32 C         143.4384  141.9869  169.6418 C.3     1  UNL1        0.0903
     33 N         143.4374  140.6962  170.4060 N.3     1  UNL1       -0.2946
     34 C         142.4457  139.6236  170.0654 C.3     1  UNL1        0.0903
     35 C         141.4548  139.8417  168.9606 C.3     1  UNL1        0.1079
     36 H         143.2882  140.9346  171.3864 H       1  UNL1        0.1233
@<TRIPOS>BOND
     1     7     8    1
     2     8     9   ar
     3     9    10   ar
     4    10    15    1
     5    15    16   ar
     6    16    17   ar
     7    17    18   ar
     8    18    19    1
     9    18    20   ar
    10    20    21   ar
    11    10    11   ar
    12    11     1    1
    13     1     2   ar
    14     2     3   ar
    15     3     4   ar
    16     4     5   ar
    17     5    22    1
    18    22    24    1
    19    24    25   ar
    20    25    26   ar
    21    26    27   ar
    22    27    30    1
    23    30    31    1
    24    31    32    1
    25    32    33    1
    26    33    34    1
    27    34    35    1
    28    27    28   ar
    29    28    29   ar
    30     5     6   ar
    31    11    12   ar
    32    12     8   ar
    33    21    15   ar
    34     6     1   ar
    35    29    24   ar
    36    35    30    1
    37     7    13    1
    38     7    14    1
    39    22    23    1
    40    33    36    1
@<TRIPOS>MOLECULE
*****
 36 40 0 0 0
SMALL
GASTEIGER

@<TRIPOS>ATOM
      1 C         139.9387  141.3478  160.6681 C.ar    1  UNL1        0.0932
      2 C         140.5689  140.3467  159.7457 C.ar    1  UNL1        0.0405
      3 C         140.5096  138.8841  160.0731 C.ar    1  UNL1        0.1034
      4 N         139.8201  138.4225  161.3227 N.ar    1  UNL1       -0.2120
      5 C         139.1899  139.4236  162.2450 C.ar    1  UNL1        0.2207
      6 N         139.2492  140.8862  161.9176 N.ar    1  UNL1       -0.2130
      7 N         140.1244  145.8886  157.9798 N.pl3   1  UNL1       -0.3375
      8 C         140.0834  144.8977  159.1050 C.ar    1  UNL1        0.1567
      9 N         140.0952  145.2248  160.5689 N.ar    1  UNL1       -0.2244
     10 C         140.0425  143.9348  161.3326 C.ar    1  UNL1        0.0907
     11 C         139.9980  142.8104  160.3408 C.ar    1  UNL1        0.0674
     12 S         140.0232  143.4055  158.9641 S.2     1  UNL1       -0.0505
     13 H         140.1631  146.8530  158.1742 H       1  UNL1        0.1442
     14 H         140.1125  145.5747  157.0467 H       1  UNL1        0.1442
     15 C         140.0355  143.7940  162.8260 C.ar    1  UNL1        0.0184
     16 C         141.2932  143.4136  163.5494 C.ar    1  UNL1        0.0038
     17 C         141.2861  143.2728  165.0427 C.ar    1  UNL1        0.0297
     18 C         140.0213  143.5125  165.8127 C.ar    1  UNL1        0.1401
     19 F         140.0143  143.3717  167.3061 F       1  UNL1       -0.2042
     20 C         138.7636  143.8929  165.0893 C.ar    1  UNL1        0.0297
     21 C         138.7707  144.0337  163.5960 C.ar    1  UNL1        0.0038
     22 N         138.5003  138.9620  163.4946 N.pl3   1  UNL1       -0.2825
     23 H         137.6540  138.4628  163.4341 H       1  UNL1        0.1551
     24 C         139.1003  139.2612  164.8364 C.ar    1  UNL1        0.0505
     25 C         140.5705  139.5337  164.9566 C.ar    1  UNL1        0.0159
     26 C         141.1705  139.8328  166.2985 C.ar    1  UNL1        0.0158
     27 C         140.3004  139.8595  167.5201 C.ar    1  UNL1        0.0480
     28 C         138.8303  139.5870  167.3998 C.ar    1  UNL1        0.0158
     29 C         138.2302  139.2878  166.0580 C.ar    1  UNL1        0.0159
     30 N         140.9004  140.1586  168.8619 N.pl3   1  UNL1       -0.3047
     31 C         140.1555  141.0151  169.8425 C.3     1  UNL1        0.1079
     32 C         140.7554  141.3142  171.1843 C.3     1  UNL1        0.0903
     33 N         142.1003  140.7569  171.5456 N.3     1  UNL1       -0.2946
     34 C         142.8453  139.9004  170.5650 C.3     1  UNL1        0.0903
     35 C         142.2454  139.6012  169.2232 C.3     1  UNL1        0.1079
     36 H         141.9701  140.1956  172.3872 H       1  UNL1        0.1233
@<TRIPOS>BOND
     1     7     8    1
     2     8     9   ar
     3     9    10   ar
     4    10    15    1
     5    15    16   ar
     6    16    17   ar
     7    17    18   ar
     8    18    19    1
     9    18    20   ar
    10    20    21   ar
    11    10    11   ar
    12    11     1    1
    13     1     2   ar
    14     2     3   ar
    15     3     4   ar
    16     4     5   ar
    17     5    22    1
    18    22    24    1
    19    24    25   ar
    20    25    26   ar
    21    26    27   ar
    22    27    30    1
    23    30    31    1
    24    31    32    1
    25    32    33    1
    26    33    34    1
    27    34    35    1
    28    27    28   ar
    29    28    29   ar
    30     5     6   ar
    31    11    12   ar
    32    12     8   ar
    33    21    15   ar
    34     6     1   ar
    35    29    24   ar
    36    35    30    1
    37     7    13    1
    38     7    14    1
    39    22    23    1
    40    33    36    1
@<TRIPOS>MOLECULE
*****
 36 40 0 0 0
SMALL
GASTEIGER

@<TRIPOS>ATOM
      1 C         142.5932  140.8023  161.0870 C.ar    1  UNL1        0.0932
      2 C         143.5068  140.0209  160.1898 C.ar    1  UNL1        0.0405
      3 C         143.7195  138.5554  160.4288 C.ar    1  UNL1        0.1034
      4 N         143.0185  137.8712  161.5649 N.ar    1  UNL1       -0.2120
      5 C         142.1050  138.6526  162.4620 C.ar    1  UNL1        0.2207
      6 N         141.8923  140.1181  162.2230 N.ar    1  UNL1       -0.2130
      7 N         141.6167  145.4120  158.7041 N.pl3   1  UNL1       -0.3375
      8 C         141.9317  144.3866  159.7526 C.ar    1  UNL1        0.1567
      9 N         142.1750  144.6592  161.2075 N.ar    1  UNL1       -0.2244
     10 C         142.4524  143.3497  161.8844 C.ar    1  UNL1        0.0907
     11 C         142.3806  142.2677  160.8479 C.ar    1  UNL1        0.0674
     12 S         142.0588  142.9086  159.5305 S.2     1  UNL1       -0.0505
     13 H         141.5541  146.3634  158.9492 H       1  UNL1        0.1442
     14 H         141.4725  145.1335  157.7709 H       1  UNL1        0.1442
     15 C         142.7495  143.1561  163.3419 C.ar    1  UNL1        0.0184
     16 C         141.6254  143.0688  164.3313 C.ar    1  UNL1        0.0038
     17 C         141.9225  142.8752  165.7888 C.ar    1  UNL1        0.0297
     18 C         143.3437  142.7690  166.2568 C.ar    1  UNL1        0.1401
     19 F         143.6407  142.5754  167.7144 F       1  UNL1       -0.2042
     20 C         144.4677  142.8563  165.2675 C.ar    1  UNL1        0.0297
     21 C         144.1706  143.0499  163.8100 C.ar    1  UNL1        0.0038
     22 N         141.4040  137.9685  163.5981 N.pl3   1  UNL1       -0.2825
     23 H         141.0259  137.0683  163.4726 H       1  UNL1        0.1551
     24 C         141.2792  138.6561  164.9254 C.ar    1  UNL1        0.0505
     25 C         139.9668  139.2521  165.3408 C.ar    1  UNL1        0.0159
     26 C         139.8420  139.9397  166.6680 C.ar    1  UNL1        0.0158
     27 C         141.0295  140.0314  167.5799 C.ar    1  UNL1        0.0480
     28 C         142.3418  139.4354  167.1645 C.ar    1  UNL1        0.0158
     29 C         142.4667  138.7478  165.8372 C.ar    1  UNL1        0.0159
     30 N         140.9047  140.7190  168.9072 N.pl3   1  UNL1       -0.3047
     31 C         140.2515  142.0664  168.9953 C.3     1  UNL1        0.1079
     32 C         140.1267  142.7541  170.3225 C.3     1  UNL1        0.0903
     33 N         140.6551  142.0942  171.5616 N.3     1  UNL1       -0.2946
     34 C         141.3082  140.7468  171.4735 C.3     1  UNL1        0.0903
     35 C         141.4331  140.0591  170.1463 C.3     1  UNL1        0.1079
     36 H         139.8676  141.9983  172.2028 H       1  UNL1        0.1233
@<TRIPOS>BOND
     1     7     8    1
     2     8     9   ar
     3     9    10   ar
     4    10    15    1
     5    15    16   ar
     6    16    17   ar
     7    17    18   ar
     8    18    19    1
     9    18    20   ar
    10    20    21   ar
    11    10    11   ar
    12    11     1    1
    13     1     2   ar
    14     2     3   ar
    15     3     4   ar
    16     4     5   ar
    17     5    22    1
    18    22    24    1
    19    24    25   ar
    20    25    26   ar
    21    26    27   ar
    22    27    30    1
    23    30    31    1
    24    31    32    1
    25    32    33    1
    26    33    34    1
    27    34    35    1
    28    27    28   ar
    29    28    29   ar
    30     5     6   ar
    31    11    12   ar
    32    12     8   ar
    33    21    15   ar
    34     6     1   ar
    35    29    24   ar
    36    35    30    1
    37     7    13    1
    38     7    14    1
    39    22    23    1
    40    33    36    1
@<TRIPOS>MOLECULE
*****
 36 40 0 0 0
SMALL
GASTEIGER

@<TRIPOS>ATOM
      1 C         139.9409  139.5152  160.6485 C.ar    1  UNL1        0.0932
      2 C         138.5396  139.1469  160.2600 C.ar    1  UNL1        0.0405
      3 C         137.3782  139.8949  160.8444 C.ar    1  UNL1        0.1034
      4 N         137.6179  141.0113  161.8172 N.ar    1  UNL1       -0.2120
      5 C         139.0192  141.3796  162.2055 C.ar    1  UNL1        0.2207
      6 N         140.1806  140.6316  161.6212 N.ar    1  UNL1       -0.2130
      7 N         143.1981  137.1974  157.1990 N.pl3   1  UNL1       -0.3375
      8 C         142.5995  137.7017  158.4786 C.ar    1  UNL1        0.1567
      9 N         143.1796  137.5302  159.8511 N.ar    1  UNL1       -0.2244
     10 C         142.2543  138.1886  160.8311 C.ar    1  UNL1        0.0907
     11 C         141.1023  138.7671  160.0642 C.ar    1  UNL1        0.0674
     12 S         141.3156  138.4663  158.6102 S.2     1  UNL1       -0.0505
     13 H         144.0493  136.7030  157.2150 H       1  UNL1        0.1442
     14 H         142.7397  137.3607  156.3431 H       1  UNL1        0.1442
     15 C         142.4471  138.2566  162.3171 C.ar    1  UNL1        0.0184
     16 C         143.5796  139.0556  162.8907 C.ar    1  UNL1        0.0038
     17 C         143.7724  139.1236  164.3767 C.ar    1  UNL1        0.0297
     18 C         142.8328  138.3924  165.2891 C.ar    1  UNL1        0.1401
     19 F         143.0256  138.4604  166.7751 F       1  UNL1       -0.2042
     20 C         141.7003  137.5934  164.7155 C.ar    1  UNL1        0.0297
     21 C         141.5075  137.5254  163.2296 C.ar    1  UNL1        0.0038
     22 N         139.2590  142.4960  163.1783 N.pl3   1  UNL1       -0.2825
     23 H         139.2191  143.4314  162.8737 H       1  UNL1        0.1551
     24 C         139.5596  142.1872  164.6150 C.ar    1  UNL1        0.0505
     25 C         139.9574  143.2894  165.5516 C.ar    1  UNL1        0.0159
     26 C         140.2581  142.9807  166.9883 C.ar    1  UNL1        0.0158
     27 C         140.1610  141.5698  167.4886 C.ar    1  UNL1        0.0480
     28 C         139.7632  140.4678  166.5520 C.ar    1  UNL1        0.0158
     29 C         139.4625  140.7764  165.1152 C.ar    1  UNL1        0.0159
     30 N         140.4617  141.2611  168.9254 N.pl3   1  UNL1       -0.3047
     31 C         141.5479  142.0076  169.6414 C.3     1  UNL1        0.1079
     32 C         141.8486  141.6989  171.0782 C.3     1  UNL1        0.0903
     33 N         141.0630  140.6437  171.7988 N.3     1  UNL1       -0.2946
     34 C         139.9768  139.8972  171.0827 C.3     1  UNL1        0.0903
     35 C         139.6761  140.2059  169.6460 C.3     1  UNL1        0.1079
     36 H         140.6282  141.0975  172.6022 H       1  UNL1        0.1233
@<TRIPOS>BOND
     1     7     8    1
     2     8     9   ar
     3     9    10   ar
     4    10    15    1
     5    15    16   ar
     6    16    17   ar
     7    17    18   ar
     8    18    19    1
     9    18    20   ar
    10    20    21   ar
    11    10    11   ar
    12    11     1    1
    13     1     2   ar
    14     2     3   ar
    15     3     4   ar
    16     4     5   ar
    17     5    22    1
    18    22    24    1
    19    24    25   ar
    20    25    26   ar
    21    26    27   ar
    22    27    30    1
    23    30    31    1
    24    31    32    1
    25    32    33    1
    26    33    34    1
    27    34    35    1
    28    27    28   ar
    29    28    29   ar
    30     5     6   ar
    31    11    12   ar
    32    12     8   ar
    33    21    15   ar
    34     6     1   ar
    35    29    24   ar
    36    35    30    1
    37     7    13    1
    38     7    14    1
    39    22    23    1
    40    33    36    1
@<TRIPOS>MOLECULE
*****
 36 40 0 0 0
SMALL
GASTEIGER

@<TRIPOS>ATOM
      1 C         142.4794  140.9898  166.5673 C.ar    1  UNL1        0.0932
      2 C         142.8633  142.4392  166.5244 C.ar    1  UNL1        0.0405
      3 C         143.8774  142.9172  165.5279 C.ar    1  UNL1        0.1034
      4 N         144.5076  141.9458  164.5742 N.ar    1  UNL1       -0.2120
      5 C         144.1236  140.4964  164.6172 C.ar    1  UNL1        0.2207
      6 N         143.1095  140.0185  165.6137 N.ar    1  UNL1       -0.2130
      7 N         140.0781  139.8233  171.1230 N.pl3   1  UNL1       -0.3375
      8 C         140.3615  139.9756  169.6579 C.ar    1  UNL1        0.1567
      9 N         139.4479  139.5769  168.5370 N.ar    1  UNL1       -0.2244
     10 C         140.1301  139.9083  167.2428 C.ar    1  UNL1        0.0907
     11 C         141.4653  140.5118  167.5638 C.ar    1  UNL1        0.0674
     12 S         141.6083  140.5534  169.0564 S.2     1  UNL1       -0.0505
     13 H         139.2261  139.4303  171.4213 H       1  UNL1        0.1442
     14 H         140.7440  140.1164  171.7862 H       1  UNL1        0.1442
     15 C         139.5746  139.6767  165.8688 C.ar    1  UNL1        0.0184
     16 C         138.6532  140.6871  165.2522 C.ar    1  UNL1        0.0038
     17 C         138.0978  140.4556  163.8783 C.ar    1  UNL1        0.0297
     18 C         138.4636  139.2136  163.1209 C.ar    1  UNL1        0.1401
     19 F         137.9080  138.9820  161.7469 F       1  UNL1       -0.2042
     20 C         139.3849  138.2032  163.7375 C.ar    1  UNL1        0.0297
     21 C         139.9404  138.4347  165.1114 C.ar    1  UNL1        0.0038
     22 N         144.7538  139.5250  163.6636 N.pl3   1  UNL1       -0.2825
     23 H         145.6388  139.1428  163.8635 H       1  UNL1        0.1551
     24 C         144.0356  139.1360  162.4055 C.ar    1  UNL1        0.0505
     25 C         144.3133  139.8686  161.1263 C.ar    1  UNL1        0.0159
     26 C         143.5950  139.4796  159.8682 C.ar    1  UNL1        0.0158
     27 C         142.5991  138.3581  159.8892 C.ar    1  UNL1        0.0480
     28 C         142.3215  137.6256  161.1684 C.ar    1  UNL1        0.0158
     29 C         143.0397  138.0145  162.4266 C.ar    1  UNL1        0.0159
     30 N         141.8809  137.9691  158.6311 N.pl3   1  UNL1       -0.3047
     31 C         140.4653  138.4121  158.4081 C.3     1  UNL1        0.1079
     32 C         139.7470  138.0232  157.1500 C.3     1  UNL1        0.0903
     33 N         140.4444  137.1911  156.1150 N.3     1  UNL1       -0.2946
     34 C         141.8600  136.7481  156.3380 C.3     1  UNL1        0.0903
     35 C         142.5783  137.1370  157.5960 C.3     1  UNL1        0.1079
     36 H         140.4377  137.7311  155.2497 H       1  UNL1        0.1233
@<TRIPOS>BOND
     1     7     8    1
     2     8     9   ar
     3     9    10   ar
     4    10    15    1
     5    15    16   ar
     6    16    17   ar
     7    17    18   ar
     8    18    19    1
     9    18    20   ar
    10    20    21   ar
    11    10    11   ar
    12    11     1    1
    13     1     2   ar
    14     2     3   ar
    15     3     4   ar
    16     4     5   ar
    17     5    22    1
    18    22    24    1
    19    24    25   ar
    20    25    26   ar
    21    26    27   ar
    22    27    30    1
    23    30    31    1
    24    31    32    1
    25    32    33    1
    26    33    34    1
    27    34    35    1
    28    27    28   ar
    29    28    29   ar
    30     5     6   ar
    31    11    12   ar
    32    12     8   ar
    33    21    15   ar
    34     6     1   ar
    35    29    24   ar
    36    35    30    1
    37     7    13    1
    38     7    14    1
    39    22    23    1
    40    33    36    1
@<TRIPOS>MOLECULE
*****
 36 40 0 0 0
SMALL
GASTEIGER

@<TRIPOS>ATOM
      1 C         139.7952  139.8387  166.9258 C.ar    1  UNL1        0.0932
      2 C         138.4762  139.1326  166.8170 C.ar    1  UNL1        0.0405
      3 C         138.2965  138.0293  165.8168 C.ar    1  UNL1        0.1034
      4 N         139.4357  137.6320  164.9254 N.ar    1  UNL1       -0.2120
      5 C         140.7546  138.3381  165.0343 C.ar    1  UNL1        0.2207
      6 N         140.9343  139.4414  166.0345 N.ar    1  UNL1       -0.2130
      7 N         139.9918  142.5074  171.4777 N.pl3   1  UNL1       -0.3375
      8 C         140.0653  142.1687  170.0184 C.ar    1  UNL1        0.1567
      9 N         140.4376  143.1109  168.9122 N.ar    1  UNL1       -0.2244
     10 C         140.3818  142.3527  167.6191 C.ar    1  UNL1        0.0907
     11 C         139.9749  140.9420  167.9260 C.ar    1  UNL1        0.0674
     12 S         139.7794  140.8282  169.4089 S.2     1  UNL1       -0.0505
     13 H         140.1990  143.4205  171.7822 H       1  UNL1        0.1442
     14 H         139.7365  141.8167  172.1312 H       1  UNL1        0.1442
     15 C         140.6803  142.9079  166.2579 C.ar    1  UNL1        0.0184
     16 C         139.6005  143.5930  165.4739 C.ar    1  UNL1        0.0038
     17 C         139.8991  144.1481  164.1129 C.ar    1  UNL1        0.0297
     18 C         141.2776  144.0183  163.5357 C.ar    1  UNL1        0.1401
     19 F         141.5761  144.5735  162.1746 F       1  UNL1       -0.2042
     20 C         142.3574  143.3332  164.3197 C.ar    1  UNL1        0.0297
     21 C         142.0588  142.7781  165.6808 C.ar    1  UNL1        0.0038
     22 N         141.8938  137.9409  164.1430 N.pl3   1  UNL1       -0.2825
     23 H         142.3986  137.1160  164.3273 H       1  UNL1        0.1551
     24 C         142.2639  138.8005  162.9708 C.ar    1  UNL1        0.0505
     25 C         143.4199  138.4172  162.0949 C.ar    1  UNL1        0.0159
     26 C         143.7899  139.2768  160.9227 C.ar    1  UNL1        0.0158
     27 C         143.0042  140.5197  160.6263 C.ar    1  UNL1        0.0480
     28 C         141.8484  140.9030  161.5021 C.ar    1  UNL1        0.0158
     29 C         141.4782  140.0434  162.6744 C.ar    1  UNL1        0.0159
     30 N         143.3743  141.3793  159.4541 N.pl3   1  UNL1       -0.3047
     31 C         142.8295  142.7725  159.3440 C.3     1  UNL1        0.1079
     32 C         143.1995  143.6322  158.1719 C.3     1  UNL1        0.0903
     33 N         144.1145  143.0986  157.1097 N.3     1  UNL1       -0.2946
     34 C         144.6593  141.7054  157.2198 C.3     1  UNL1        0.0903
     35 C         144.2893  140.8458  158.3919 C.3     1  UNL1        0.1079
     36 H         144.9173  143.7265  157.0701 H       1  UNL1        0.1233
@<TRIPOS>BOND
     1     7     8    1
     2     8     9   ar
     3     9    10   ar
     4    10    15    1
     5    15    16   ar
     6    16    17   ar
     7    17    18   ar
     8    18    19    1
     9    18    20   ar
    10    20    21   ar
    11    10    11   ar
    12    11     1    1
    13     1     2   ar
    14     2     3   ar
    15     3     4   ar
    16     4     5   ar
    17     5    22    1
    18    22    24    1
    19    24    25   ar
    20    25    26   ar
    21    26    27   ar
    22    27    30    1
    23    30    31    1
    24    31    32    1
    25    32    33    1
    26    33    34    1
    27    34    35    1
    28    27    28   ar
    29    28    29   ar
    30     5     6   ar
    31    11    12   ar
    32    12     8   ar
    33    21    15   ar
    34     6     1   ar
    35    29    24   ar
    36    35    30    1
    37     7    13    1
    38     7    14    1
    39    22    23    1
    40    33    36    1
