@<TRIPOS>MOLECULE
*****
 27 30 0 0 0
SMALL
GASTEIGER

@<TRIPOS>ATOM
      1 C         143.2425  143.8821  162.4075 C.2     1  UNL1        0.3179
      2 N         143.9478  143.6232  161.1092 N.2     1  UNL1        0.0095
      3 C         144.8421  142.4275  160.9671 C.2     1  UNL1        0.4717
      4 N         145.0312  141.4906  162.1232 N.2     1  UNL1        0.0158
      5 C         144.3259  141.7495  163.4214 C.2     1  UNL1        0.3712
      6 N         144.3188  141.0078  164.7252 N.2     1  UNL1       -0.0378
      7 C         143.4200  141.7451  165.6731 C.2     1  UNL1        0.1900
      8 C         142.8716  142.9426  164.9552 C.2     1  UNL1        0.0447
      9 C         143.4316  142.9453  163.5636 C.3     1  UNL1        0.2425
     10 C         143.1219  141.3537  167.0902 C.ar    1  UNL1        0.0427
     11 C         142.6510  139.9639  167.4011 C.ar    1  UNL1        0.0037
     12 C         142.3529  139.5726  168.8181 C.ar    1  UNL1        0.0001
     13 C         142.5258  140.5709  169.9242 C.ar    1  UNL1        0.0000
     14 C         142.9968  141.9607  169.6132 C.ar    1  UNL1        0.0001
     15 C         143.2948  142.3521  168.1962 C.ar    1  UNL1        0.0037
     16 N         142.3481  145.0780  162.5497 N.pl3   1  UNL1       -0.2192
     17 H         142.6784  145.8890  162.9995 H       1  UNL1        0.2922
     18 CA        140.9505  145.0380  162.0064 C.3     1  UNL1        0.2087
     19 C         139.8215  144.5677  162.8747 C.ar    1  UNL1        0.0222
     20 C         139.7520  144.9943  164.3111 C.ar    1  UNL1       -0.0004
     21 C         138.6230  144.5239  165.1794 C.ar    1  UNL1       -0.0002
     22 C         137.5633  143.6270  164.6113 C.ar    1  UNL1       -0.0000
     23 C         137.6328  143.2004  163.1750 C.ar    1  UNL1       -0.0002
     24 C         138.7618  143.6707  162.3066 C.ar    1  UNL1       -0.0004
     25 O         141.8138  145.5809  159.6168 O.3     1  UNL1       -0.3780
     26 C         140.6820  145.4685  160.5947 C.3     1  UNL1        0.1886
     27 H         141.4704  145.8686  158.7564 H       1  UNL1        0.2106
@<TRIPOS>BOND
     1    25    26    1
     2    18    26    1
     3    18    16    1
     4    16     1    1
     5     1     2    2
     6     2     3    1
     7     3     4    2
     8     4     5    1
     9     5     6    2
    10     6     7    1
    11     7    10    1
    12    10    11   ar
    13    11    12   ar
    14    12    13   ar
    15    13    14   ar
    16    14    15   ar
    17     7     8    2
    18     8     9    1
    19    18    19    1
    20    19    20   ar
    21    20    21   ar
    22    21    22   ar
    23    22    23   ar
    24    23    24   ar
    25     9     1    1
    26    24    19   ar
    27     9     5    1
    28    15    10   ar
    29    25    27    1
    30    16    17    1
@<TRIPOS>MOLECULE
*****
 27 30 0 0 0
SMALL
GASTEIGER

@<TRIPOS>ATOM
      1 C         138.6446  143.3315  163.1190 C.2     1  UNL1        0.3179
      2 N         137.7259  142.4931  162.2805 N.2     1  UNL1        0.0095
      3 C         137.3331  141.1209  162.7416 C.2     1  UNL1        0.4717
      4 N         137.8588  140.5871  164.0410 N.2     1  UNL1        0.0158
      5 C         138.7774  141.4255  164.8795 C.2     1  UNL1        0.3712
      6 N         139.4492  141.1688  166.1959 N.2     1  UNL1       -0.0378
      7 C         140.2572  142.3824  166.5485 C.2     1  UNL1        0.1900
      8 C         140.0849  143.3892  165.4500 C.2     1  UNL1        0.0447
      9 C         139.1703  142.7978  164.4185 C.3     1  UNL1        0.2425
     10 C         141.0911  142.5583  167.7829 C.ar    1  UNL1        0.0427
     11 C         142.5185  142.0976  167.7956 C.ar    1  UNL1        0.0037
     12 C         143.3524  142.2735  169.0299 C.ar    1  UNL1        0.0001
     13 C         142.7589  142.9101  170.2516 C.ar    1  UNL1        0.0000
     14 C         141.3315  143.3709  170.2388 C.ar    1  UNL1        0.0001
     15 C         140.4976  143.1950  169.0045 C.ar    1  UNL1        0.0037
     16 N         139.0375  144.7038  162.6580 N.pl3   1  UNL1       -0.2192
     17 H         138.4405  145.4688  162.8244 H       1  UNL1        0.2922
     18 CA        140.3401  144.9106  161.9435 C.3     1  UNL1        0.2087
     19 C         141.6231  144.4625  162.5783 C.ar    1  UNL1        0.0222
     20 C         142.3408  145.3654  163.5375 C.ar    1  UNL1       -0.0004
     21 C         143.6238  144.9172  164.1723 C.ar    1  UNL1       -0.0002
     22 C         144.1892  143.5663  163.8480 C.ar    1  UNL1       -0.0000
     23 C         143.4716  142.6634  162.8889 C.ar    1  UNL1       -0.0002
     24 C         142.1885  143.1115  162.2540 C.ar    1  UNL1       -0.0004
     25 O         141.6384  145.6365  159.8133 O.3     1  UNL1       -0.3780
     26 C         140.3596  145.5656  160.5941 C.3     1  UNL1        0.1886
     27 H         141.4777  146.0879  158.9699 H       1  UNL1        0.2106
@<TRIPOS>BOND
     1    25    26    1
     2    18    26    1
     3    18    16    1
     4    16     1    1
     5     1     2    2
     6     2     3    1
     7     3     4    2
     8     4     5    1
     9     5     6    2
    10     6     7    1
    11     7    10    1
    12    10    11   ar
    13    11    12   ar
    14    12    13   ar
    15    13    14   ar
    16    14    15   ar
    17     7     8    2
    18     8     9    1
    19    18    19    1
    20    19    20   ar
    21    20    21   ar
    22    21    22   ar
    23    22    23   ar
    24    23    24   ar
    25     9     1    1
    26    24    19   ar
    27     9     5    1
    28    15    10   ar
    29    25    27    1
    30    16    17    1
@<TRIPOS>MOLECULE
*****
 27 30 0 0 0
SMALL
GASTEIGER

@<TRIPOS>ATOM
      1 C         140.7996  138.1040  162.7845 C.2     1  UNL1        0.3179
      2 N         139.9748  137.7530  161.5818 N.2     1  UNL1        0.0095
      3 C         138.5462  138.2020  161.4952 C.2     1  UNL1        0.4717
      4 N         137.9424  139.0019  162.6112 N.2     1  UNL1        0.0158
      5 C         138.7672  139.3529  163.8139 C.2     1  UNL1        0.3712
      6 N         138.4471  140.1235  165.0603 N.2     1  UNL1       -0.0378
      7 C         139.6780  140.1509  165.9173 C.2     1  UNL1        0.1900
      8 C         140.7587  139.3972  165.2005 C.2     1  UNL1        0.0447
      9 C         140.1958  138.9040  163.9005 C.3     1  UNL1        0.2425
     10 C         139.8056  140.8155  167.2561 C.ar    1  UNL1        0.0427
     11 C         139.3274  140.1116  168.4913 C.ar    1  UNL1        0.0037
     12 C         139.4550  140.7762  169.8300 C.ar    1  UNL1        0.0001
     13 C         140.0608  142.1445  169.9334 C.ar    1  UNL1        0.0000
     14 C         140.5389  142.8483  168.6981 C.ar    1  UNL1        0.0001
     15 C         140.4113  142.1838  167.3595 C.ar    1  UNL1        0.0037
     16 N         142.2283  137.6551  162.8711 N.pl3   1  UNL1       -0.2192
     17 H         142.4880  136.9622  163.5204 H       1  UNL1        0.2922
     18 CA        143.2612  138.2620  161.9684 C.3     1  UNL1        0.2087
     19 C         144.0424  139.4597  162.4214 C.ar    1  UNL1        0.0222
     20 C         144.6752  139.4719  163.7814 C.ar    1  UNL1       -0.0004
     21 C         145.4565  140.6696  164.2343 C.ar    1  UNL1       -0.0002
     22 C         145.6051  141.8550  163.3273 C.ar    1  UNL1       -0.0000
     23 C         144.9724  141.8428  161.9674 C.ar    1  UNL1       -0.0002
     24 C         144.1910  140.6451  161.5144 C.ar    1  UNL1       -0.0004
     25 O         142.4744  137.7930  159.5372 O.3     1  UNL1       -0.3780
     26 C         143.5127  137.6712  160.6128 C.3     1  UNL1        0.1886
     27 H         142.7932  137.3605  158.7296 H       1  UNL1        0.2106
@<TRIPOS>BOND
     1    25    26    1
     2    18    26    1
     3    18    16    1
     4    16     1    1
     5     1     2    2
     6     2     3    1
     7     3     4    2
     8     4     5    1
     9     5     6    2
    10     6     7    1
    11     7    10    1
    12    10    11   ar
    13    11    12   ar
    14    12    13   ar
    15    13    14   ar
    16    14    15   ar
    17     7     8    2
    18     8     9    1
    19    18    19    1
    20    19    20   ar
    21    20    21   ar
    22    21    22   ar
    23    22    23   ar
    24    23    24   ar
    25     9     1    1
    26    24    19   ar
    27     9     5    1
    28    15    10   ar
    29    25    27    1
    30    16    17    1
@<TRIPOS>MOLECULE
*****
 27 30 0 0 0
SMALL
GASTEIGER

@<TRIPOS>ATOM
      1 C         137.7810  141.9657  163.5038 C.2     1  UNL1        0.3179
      2 N         137.4130  143.1353  162.6397 N.2     1  UNL1        0.0095
      3 C         137.9764  144.4934  162.9363 C.2     1  UNL1        0.4717
      4 N         138.9078  144.6820  164.0969 N.2     1  UNL1        0.0158
      5 C         139.2757  143.5124  164.9610 C.2     1  UNL1        0.3712
      6 N         140.1632  143.3934  166.1644 N.2     1  UNL1       -0.0378
      7 C         140.1483  141.9617  166.6116 C.2     1  UNL1        0.1900
      8 C         139.2516  141.1958  165.6846 C.2     1  UNL1        0.0447
      9 C         138.7123  142.1543  164.6644 C.3     1  UNL1        0.2425
     10 C         140.8985  141.3953  167.7806 C.ar    1  UNL1        0.0427
     11 C         140.2794  140.3147  168.6167 C.ar    1  UNL1        0.0037
     12 C         141.0296  139.7484  169.7856 C.ar    1  UNL1        0.0001
     13 C         142.3988  140.2626  170.1185 C.ar    1  UNL1        0.0000
     14 C         143.0179  141.3432  169.2824 C.ar    1  UNL1        0.0001
     15 C         142.2677  141.9095  168.1134 C.ar    1  UNL1        0.0037
     16 N         137.2176  140.6074  163.2073 N.pl3   1  UNL1       -0.2192
     17 H         136.3521  140.3388  163.5921 H       1  UNL1        0.2922
     18 CA        137.9728  139.6586  162.3245 C.3     1  UNL1        0.2087
     19 C         139.0289  138.7688  162.9099 C.ar    1  UNL1        0.0222
     20 C         140.2728  138.4664  162.1281 C.ar    1  UNL1       -0.0004
     21 C         141.3289  137.5766  162.7136 C.ar    1  UNL1       -0.0002
     22 C         141.1412  136.9891  164.0809 C.ar    1  UNL1       -0.0000
     23 C         139.8973  137.2915  164.8627 C.ar    1  UNL1       -0.0002
     24 C         138.8411  138.1813  164.2773 C.ar    1  UNL1       -0.0004
     25 O         136.2508  139.5071  160.3849 O.3     1  UNL1       -0.3780
     26 C         137.6719  139.5997  160.8561 C.3     1  UNL1        0.1886
     27 H         136.2329  139.4782  159.4155 H       1  UNL1        0.2106
@<TRIPOS>BOND
     1    25    26    1
     2    18    26    1
     3    18    16    1
     4    16     1    1
     5     1     2    2
     6     2     3    1
     7     3     4    2
     8     4     5    1
     9     5     6    2
    10     6     7    1
    11     7    10    1
    12    10    11   ar
    13    11    12   ar
    14    12    13   ar
    15    13    14   ar
    16    14    15   ar
    17     7     8    2
    18     8     9    1
    19    18    19    1
    20    19    20   ar
    21    20    21   ar
    22    21    22   ar
    23    22    23   ar
    24    23    24   ar
    25     9     1    1
    26    24    19   ar
    27     9     5    1
    28    15    10   ar
    29    25    27    1
    30    16    17    1
@<TRIPOS>MOLECULE
*****
 27 30 0 0 0
SMALL
GASTEIGER

@<TRIPOS>ATOM
      1 C         138.7019  140.7689  163.5020 C.2     1  UNL1        0.3179
      2 N         137.9187  141.4042  162.3916 N.2     1  UNL1        0.0095
      3 C         137.7027  142.8885  162.3801 C.2     1  UNL1        0.4717
      4 N         138.2697  143.7375  163.4791 N.2     1  UNL1        0.0158
      5 C         139.0529  143.1022  164.5895 C.2     1  UNL1        0.3712
      6 N         139.7275  143.6781  165.7991 N.2     1  UNL1       -0.0378
      7 C         140.3605  142.5498  166.5581 C.2     1  UNL1        0.1900
      8 C         140.0771  141.2765  165.8177 C.2     1  UNL1        0.0447
      9 C         139.2689  141.6179  164.6009 C.3     1  UNL1        0.2425
     10 C         141.1401  142.6732  167.8337 C.ar    1  UNL1        0.0427
     11 C         140.5091  143.3021  169.0405 C.ar    1  UNL1        0.0037
     12 C         141.2887  143.4255  170.3160 C.ar    1  UNL1        0.0001
     13 C         142.6992  142.9199  170.3848 C.ar    1  UNL1        0.0000
     14 C         143.3302  142.2910  169.1780 C.ar    1  UNL1        0.0001
     15 C         142.5507  142.1676  167.9025 C.ar    1  UNL1        0.0037
     16 N         138.9180  139.2846  163.5135 N.pl3   1  UNL1       -0.2192
     17 H         138.2343  138.6906  163.8995 H       1  UNL1        0.2922
     18 CA        140.1758  138.7053  162.9370 C.3     1  UNL1        0.2087
     19 C         141.4702  138.8298  163.6846 C.ar    1  UNL1        0.0222
     20 C         142.5623  139.7095  163.1520 C.ar    1  UNL1       -0.0004
     21 C         143.8567  139.8339  163.8996 C.ar    1  UNL1       -0.0002
     22 C         144.0591  139.0787  165.1797 C.ar    1  UNL1       -0.0000
     23 C         142.9671  138.1991  165.7123 C.ar    1  UNL1       -0.0002
     24 C         141.6726  138.0746  164.9647 C.ar    1  UNL1       -0.0004
     25 O         138.8221  137.6753  160.9731 O.3     1  UNL1       -0.3780
     26 C         140.1391  138.0015  161.6128 C.3     1  UNL1        0.1886
     27 H         138.9760  137.2244  160.1281 H       1  UNL1        0.2106
@<TRIPOS>BOND
     1    25    26    1
     2    18    26    1
     3    18    16    1
     4    16     1    1
     5     1     2    2
     6     2     3    1
     7     3     4    2
     8     4     5    1
     9     5     6    2
    10     6     7    1
    11     7    10    1
    12    10    11   ar
    13    11    12   ar
    14    12    13   ar
    15    13    14   ar
    16    14    15   ar
    17     7     8    2
    18     8     9    1
    19    18    19    1
    20    19    20   ar
    21    20    21   ar
    22    21    22   ar
    23    22    23   ar
    24    23    24   ar
    25     9     1    1
    26    24    19   ar
    27     9     5    1
    28    15    10   ar
    29    25    27    1
    30    16    17    1
@<TRIPOS>MOLECULE
*****
 27 30 0 0 0
SMALL
GASTEIGER

@<TRIPOS>ATOM
      1 C         139.4905  139.4062  162.7369 C.2     1  UNL1        0.3179
      2 N         140.2110  138.4068  161.8813 N.2     1  UNL1        0.0095
      3 C         141.3886  137.6586  162.4321 C.2     1  UNL1        0.4717
      4 N         141.8457  137.9098  163.8385 N.2     1  UNL1        0.0158
      5 C         141.1253  138.9092  164.6941 C.2     1  UNL1        0.3712
      6 N         141.3445  139.3647  166.1063 N.2     1  UNL1       -0.0378
      7 C         140.3024  140.3945  166.4283 C.2     1  UNL1        0.1900
      8 C         139.4391  140.5754  165.2151 C.2     1  UNL1        0.0447
      9 C         139.9477  139.6574  164.1433 C.3     1  UNL1        0.2425
     10 C         140.1504  141.1166  167.7343 C.ar    1  UNL1        0.0427
     11 C         139.5403  140.4160  168.9120 C.ar    1  UNL1        0.0037
     12 C         139.3883  141.1381  170.2179 C.ar    1  UNL1        0.0001
     13 C         139.8463  142.5607  170.3461 C.ar    1  UNL1        0.0000
     14 C         140.4564  143.2612  169.1684 C.ar    1  UNL1        0.0001
     15 C         140.6084  142.5392  167.8625 C.ar    1  UNL1        0.0037
     16 N         138.3129  140.1544  162.1861 N.pl3   1  UNL1       -0.2192
     17 H         137.4406  139.7058  162.1010 H       1  UNL1        0.2922
     18 CA        138.4642  141.5861  161.7649 C.3     1  UNL1        0.2087
     19 C         138.6968  142.6505  162.7958 C.ar    1  UNL1        0.0222
     20 C         137.5536  143.1516  163.6278 C.ar    1  UNL1       -0.0004
     21 C         137.7862  144.2160  164.6586 C.ar    1  UNL1       -0.0002
     22 C         139.1620  144.7795  164.8577 C.ar    1  UNL1       -0.0000
     23 C         140.3052  144.2785  164.0258 C.ar    1  UNL1       -0.0002
     24 C         140.0726  143.2140  162.9948 C.ar    1  UNL1       -0.0004
     25 O         138.7422  143.3402  159.8687 O.3     1  UNL1       -0.3780
     26 C         138.3829  141.9533  160.3128 C.3     1  UNL1        0.1886
     27 H         138.6360  143.4095  158.9070 H       1  UNL1        0.2106
@<TRIPOS>BOND
     1    25    26    1
     2    18    26    1
     3    18    16    1
     4    16     1    1
     5     1     2    2
     6     2     3    1
     7     3     4    2
     8     4     5    1
     9     5     6    2
    10     6     7    1
    11     7    10    1
    12    10    11   ar
    13    11    12   ar
    14    12    13   ar
    15    13    14   ar
    16    14    15   ar
    17     7     8    2
    18     8     9    1
    19    18    19    1
    20    19    20   ar
    21    20    21   ar
    22    21    22   ar
    23    22    23   ar
    24    23    24   ar
    25     9     1    1
    26    24    19   ar
    27     9     5    1
    28    15    10   ar
    29    25    27    1
    30    16    17    1
@<TRIPOS>MOLECULE
*****
 27 30 0 0 0
SMALL
GASTEIGER

@<TRIPOS>ATOM
      1 C         141.7160  144.7290  162.4011 C.2     1  UNL1        0.3179
      2 N         140.7514  145.5412  161.5889 N.2     1  UNL1        0.0095
      3 C         139.3466  145.7431  162.0743 C.2     1  UNL1        0.4717
      4 N         138.9063  145.1326  163.3718 N.2     1  UNL1        0.0158
      5 C         139.8710  144.3203  164.1840 C.2     1  UNL1        0.3712
      6 N         139.7248  143.6014  165.4923 N.2     1  UNL1       -0.0378
      7 C         141.0394  142.9553  165.8156 C.2     1  UNL1        0.1900
      8 C         141.9980  143.2748  164.7070 C.2     1  UNL1        0.0447
      9 C         141.2758  144.1185  163.6986 C.3     1  UNL1        0.2425
     10 C         141.3422  142.1338  167.0337 C.ar    1  UNL1        0.0427
     11 C         142.3071  140.9889  166.9453 C.ar    1  UNL1        0.0037
     12 C         142.6098  140.1675  168.1633 C.ar    1  UNL1        0.0001
     13 C         141.9476  140.4911  169.4697 C.ar    1  UNL1        0.0000
     14 C         140.9827  141.6360  169.5581 C.ar    1  UNL1        0.0001
     15 C         140.6800  142.4574  168.3401 C.ar    1  UNL1        0.0037
     16 N         143.1210  144.5271  161.9157 N.pl3   1  UNL1       -0.2192
     17 H         143.7755  145.2592  161.9845 H       1  UNL1        0.2922
     18 CA        143.5285  143.2097  161.3256 C.3     1  UNL1        0.2087
     19 C         144.0262  142.1105  162.2167 C.ar    1  UNL1        0.0222
     20 C         145.2300  142.3346  163.0832 C.ar    1  UNL1       -0.0004
     21 C         145.7277  141.2354  163.9743 C.ar    1  UNL1       -0.0002
     22 C         145.0217  139.9122  163.9989 C.ar    1  UNL1       -0.0000
     23 C         143.8180  139.6881  163.1324 C.ar    1  UNL1       -0.0002
     24 C         143.3203  140.7873  162.2413 C.ar    1  UNL1       -0.0004
     25 O         142.9173  144.0819  158.9558 O.3     1  UNL1       -0.3780
     26 C         143.4384  142.9914  159.8442 C.3     1  UNL1        0.1886
     27 H         142.9249  143.7795  158.0342 H       1  UNL1        0.2106
@<TRIPOS>BOND
     1    25    26    1
     2    18    26    1
     3    18    16    1
     4    16     1    1
     5     1     2    2
     6     2     3    1
     7     3     4    2
     8     4     5    1
     9     5     6    2
    10     6     7    1
    11     7    10    1
    12    10    11   ar
    13    11    12   ar
    14    12    13   ar
    15    13    14   ar
    16    14    15   ar
    17     7     8    2
    18     8     9    1
    19    18    19    1
    20    19    20   ar
    21    20    21   ar
    22    21    22   ar
    23    22    23   ar
    24    23    24   ar
    25     9     1    1
    26    24    19   ar
    27     9     5    1
    28    15    10   ar
    29    25    27    1
    30    16    17    1
@<TRIPOS>MOLECULE
*****
 27 30 0 0 0
SMALL
GASTEIGER

@<TRIPOS>ATOM
      1 C         143.1000  143.6196  162.4954 C.2     1  UNL1        0.3179
      2 N         144.4013  143.6551  161.7502 N.2     1  UNL1        0.0095
      3 C         145.1932  142.3950  161.5634 C.2     1  UNL1        0.4717
      4 N         144.6838  141.0993  162.1217 N.2     1  UNL1        0.0158
      5 C         143.3825  141.0638  162.8668 C.2     1  UNL1        0.3712
      6 N         142.6329  139.9434  163.5248 N.2     1  UNL1       -0.0378
      7 C         141.3778  140.5111  164.1184 C.2     1  UNL1        0.1900
      8 C         141.3516  141.9823  163.8272 C.2     1  UNL1        0.0447
      9 C         142.5906  142.3239  163.0537 C.3     1  UNL1        0.2425
     10 C         140.3323  139.7425  164.8709 C.ar    1  UNL1        0.0427
     11 C         139.8520  138.4209  164.3488 C.ar    1  UNL1        0.0037
     12 C         138.8066  137.6523  165.1014 C.ar    1  UNL1        0.0001
     13 C         138.2415  138.2053  166.3761 C.ar    1  UNL1        0.0000
     14 C         138.7219  139.5269  166.8982 C.ar    1  UNL1        0.0001
     15 C         139.7672  140.2955  166.1456 C.ar    1  UNL1        0.0037
     16 N         142.3080  144.8797  162.6823 N.pl3   1  UNL1       -0.2192
     17 H         142.7029  145.6425  163.1633 H       1  UNL1        0.2922
     18 CA        140.9144  144.9776  162.1363 C.3     1  UNL1        0.2087
     19 C         139.7420  144.6345  163.0068 C.ar    1  UNL1        0.0222
     20 C         139.7098  145.0905  164.4355 C.ar    1  UNL1       -0.0004
     21 C         138.5374  144.7474  165.3060 C.ar    1  UNL1       -0.0002
     22 C         137.3972  143.9484  164.7479 C.ar    1  UNL1       -0.0000
     23 C         137.4294  143.4924  163.3193 C.ar    1  UNL1       -0.0002
     24 C         138.6018  143.8355  162.4487 C.ar    1  UNL1       -0.0004
     25 O         141.8635  145.5997  159.7991 O.3     1  UNL1       -0.3780
     26 C         140.6931  145.4185  160.7197 C.3     1  UNL1        0.1886
     27 H         141.5480  145.8854  158.9275 H       1  UNL1        0.2106
@<TRIPOS>BOND
     1    25    26    1
     2    18    26    1
     3    18    16    1
     4    16     1    1
     5     1     2    2
     6     2     3    1
     7     3     4    2
     8     4     5    1
     9     5     6    2
    10     6     7    1
    11     7    10    1
    12    10    11   ar
    13    11    12   ar
    14    12    13   ar
    15    13    14   ar
    16    14    15   ar
    17     7     8    2
    18     8     9    1
    19    18    19    1
    20    19    20   ar
    21    20    21   ar
    22    21    22   ar
    23    22    23   ar
    24    23    24   ar
    25     9     1    1
    26    24    19   ar
    27     9     5    1
    28    15    10   ar
    29    25    27    1
    30    16    17    1
@<TRIPOS>MOLECULE
*****
 27 30 0 0 0
SMALL
GASTEIGER

@<TRIPOS>ATOM
      1 C         142.0162  138.9312  163.4768 C.2     1  UNL1        0.3179
      2 N         141.4167  138.0382  162.4312 N.2     1  UNL1        0.0095
      3 C         139.9825  137.6130  162.5409 C.2     1  UNL1        0.4717
      4 N         139.1478  138.0807  163.6961 N.2     1  UNL1        0.0158
      5 C         139.7473  138.9737  164.7417 C.2     1  UNL1        0.3712
      6 N         139.1750  139.5894  165.9840 N.2     1  UNL1       -0.0378
      7 C         140.2555  140.3952  166.6421 C.2     1  UNL1        0.1900
      8 C         141.4957  140.2775  165.8065 C.2     1  UNL1        0.0447
      9 C         141.1815  139.3989  164.6320 C.3     1  UNL1        0.2425
     10 C         140.1197  141.1808  167.9127 C.ar    1  UNL1        0.0427
     11 C         139.5017  140.5473  169.1238 C.ar    1  UNL1        0.0037
     12 C         139.3659  141.3329  170.3943 C.ar    1  UNL1        0.0001
     13 C         139.8482  142.7520  170.4538 C.ar    1  UNL1        0.0000
     14 C         140.4662  143.3855  169.2428 C.ar    1  UNL1        0.0001
     15 C         140.6019  142.5999  167.9722 C.ar    1  UNL1        0.0037
     16 N         143.4505  139.3565  163.3671 N.pl3   1  UNL1       -0.2192
     17 H         144.1514  138.8504  163.8381 H       1  UNL1        0.2922
     18 CA        143.8169  140.5529  162.5398 C.3     1  UNL1        0.2087
     19 C         143.8695  141.9130  163.1701 C.ar    1  UNL1        0.0222
     20 C         143.3819  143.1110  162.4106 C.ar    1  UNL1       -0.0004
     21 C         143.4345  144.4711  163.0409 C.ar    1  UNL1       -0.0002
     22 C         143.9747  144.6332  164.4308 C.ar    1  UNL1       -0.0000
     23 C         144.4624  143.4353  165.1904 C.ar    1  UNL1       -0.0002
     24 C         144.4098  142.0751  164.5601 C.ar    1  UNL1       -0.0004
     25 O         143.8363  139.0897  160.3930 O.3     1  UNL1       -0.3780
     26 C         144.1306  140.3891  161.0821 C.3     1  UNL1        0.1886
     27 H         144.0974  139.1517  159.4608 H       1  UNL1        0.2106
@<TRIPOS>BOND
     1    25    26    1
     2    18    26    1
     3    18    16    1
     4    16     1    1
     5     1     2    2
     6     2     3    1
     7     3     4    2
     8     4     5    1
     9     5     6    2
    10     6     7    1
    11     7    10    1
    12    10    11   ar
    13    11    12   ar
    14    12    13   ar
    15    13    14   ar
    16    14    15   ar
    17     7     8    2
    18     8     9    1
    19    18    19    1
    20    19    20   ar
    21    20    21   ar
    22    21    22   ar
    23    22    23   ar
    24    23    24   ar
    25     9     1    1
    26    24    19   ar
    27     9     5    1
    28    15    10   ar
    29    25    27    1
    30    16    17    1
