@<TRIPOS>MOLECULE
*****
 30 33 0 0 0
SMALL
GASTEIGER

@<TRIPOS>ATOM
      1 N         139.2719  142.6558  159.1348 N.am    1  UNL1       -0.2766
      2 C         140.3462  141.7929  159.7275 C.2     1  UNL1        0.2673
      3 O         141.7895  142.1065  159.4659 O.2     1  UNL1       -0.2682
      4 H         138.3246  142.4499  159.3066 H       1  UNL1        0.1553
      5 C         140.0166  145.7836  154.9464 C.3     1  UNL1        0.1538
      6 N         139.9831  145.2700  156.3553 N.ar    1  UNL1       -0.2459
      7 C         139.4928  143.9207  156.7905 C.ar    1  UNL1        0.1115
      8 C         139.6409  143.8323  158.2805 C.ar    1  UNL1        0.0937
      9 C         140.2226  145.1267  158.7663 C.ar    1  UNL1        0.1686
     10 N         140.4341  146.0153  157.5765 N.ar    1  UNL1       -0.1632
     11 C         140.5374  145.4719  160.1916 C.2     1  UNL1        0.2635
     12 N         141.8448  145.0504  160.7942 N.am    1  UNL1       -0.3240
     13 O         139.5449  146.2387  161.0145 O.2     1  UNL1       -0.2686
     14 H         142.4962  144.5471  160.2542 H       1  UNL1        0.1453
     15 H         142.0514  145.2770  161.7297 H       1  UNL1        0.1453
     16 C         139.9772  140.6164  160.5818 C.ar    1  UNL1        0.1347
     17 C         139.6626  139.2957  159.9441 C.ar    1  UNL1        0.0238
     18 C         139.2936  138.1193  160.7984 C.ar    1  UNL1        0.0032
     19 C         139.2393  138.2636  162.2904 C.ar    1  UNL1        0.0192
     20 C         139.5539  139.5843  162.9282 C.ar    1  UNL1        0.0829
     21 N         139.9229  140.7607  162.0739 N.ar    1  UNL1       -0.2407
     22 C         139.4996  139.7285  164.4202 C.ar    1  UNL1        0.0368
     23 C         138.4226  139.0364  165.2019 C.ar    1  UNL1        0.0043
     24 C         138.3683  139.1807  166.6940 C.ar    1  UNL1        0.0148
     25 C         139.3909  140.0171  167.4043 C.ar    1  UNL1        0.0586
     26 N         140.4679  140.7092  166.6226 N.ar    1  UNL1       -0.2481
     27 C         140.5222  140.5649  165.1306 C.ar    1  UNL1        0.0999
     28 C         139.3366  140.1614  168.8964 C.3     1  UNL1        0.0403
     29 C         140.0338  140.3772  170.2068 C.3     1  UNL1        0.0063
     30 C         138.5453  140.1954  170.1702 C.3     1  UNL1        0.0063
@<TRIPOS>BOND
     1     5     6    1
     2     6     7   ar
     3     7     8   ar
     4     8     1    1
     5     1     2   am
     6     2     3    2
     7     2    16    1
     8    16    17   ar
     9    17    18   ar
    10    18    19   ar
    11    19    20   ar
    12    20    22    1
    13    22    23   ar
    14    23    24   ar
    15    24    25   ar
    16    25    28    1
    17    28    29    1
    18    29    30    1
    19    25    26   ar
    20    26    27   ar
    21    20    21   ar
    22     8     9   ar
    23     9    11    1
    24    11    12   am
    25    11    13    2
    26     9    10   ar
    27    10     6   ar
    28    21    16   ar
    29    27    22   ar
    30    30    28    1
    31     1     4    1
    32    12    14    1
    33    12    15    1
@<TRIPOS>MOLECULE
*****
 30 33 0 0 0
SMALL
GASTEIGER

@<TRIPOS>ATOM
      1 N         142.2046  135.4454  156.3487 N.am    1  UNL1       -0.2766
      2 C         143.1670  136.5936  156.4224 C.2     1  UNL1        0.2673
      3 O         144.4590  136.5393  155.6623 O.2     1  UNL1       -0.2682
      4 H         141.3567  135.4810  156.8476 H       1  UNL1        0.1553
      5 C         142.2469  131.9162  152.4213 C.3     1  UNL1        0.1538
      6 N         142.5536  132.6207  153.7095 N.ar    1  UNL1       -0.2459
      7 C         141.9387  133.9055  154.1801 C.ar    1  UNL1        0.1115
      8 C         142.5342  134.2428  155.5148 C.ar    1  UNL1        0.0937
      9 C         143.5172  133.1666  155.8692 C.ar    1  UNL1        0.1686
     10 N         143.5292  132.1641  154.7536 N.ar    1  UNL1       -0.1632
     11 C         144.3431  133.1041  157.1198 C.2     1  UNL1        0.2635
     12 N         145.5999  132.2857  157.1484 N.am    1  UNL1       -0.3240
     13 O         143.9122  133.8598  158.3418 O.2     1  UNL1       -0.2686
     14 H         145.8827  131.7897  156.3464 H       1  UNL1        0.1453
     15 H         146.1420  132.2447  157.9692 H       1  UNL1        0.1453
     16 C         142.8374  137.7961  157.2563 C.ar    1  UNL1        0.1347
     17 C         142.3677  139.0594  156.5980 C.ar    1  UNL1        0.0238
     18 C         142.0381  140.2619  157.4319 C.ar    1  UNL1        0.0032
     19 C         142.1782  140.2011  158.9241 C.ar    1  UNL1        0.0192
     20 C         142.6480  138.9378  159.5824 C.ar    1  UNL1        0.0829
     21 N         142.9775  137.7353  158.7485 N.ar    1  UNL1       -0.2407
     22 C         142.7881  138.8770  161.0746 C.ar    1  UNL1        0.0368
     23 C         141.8200  138.0685  161.8865 C.ar    1  UNL1        0.0043
     24 C         141.9602  138.0077  163.3787 C.ar    1  UNL1        0.0148
     25 C         143.0684  138.7553  164.0590 C.ar    1  UNL1        0.0586
     26 N         144.0364  139.5638  163.2471 N.ar    1  UNL1       -0.2481
     27 C         143.8963  139.6246  161.7549 C.ar    1  UNL1        0.0999
     28 C         143.2085  138.6945  165.5512 C.3     1  UNL1        0.0403
     29 C         142.9350  139.2763  166.9064 C.3     1  UNL1        0.0063
     30 C         143.7248  138.0073  166.7805 C.3     1  UNL1        0.0063
@<TRIPOS>BOND
     1     5     6    1
     2     6     7   ar
     3     7     8   ar
     4     8     1    1
     5     1     2   am
     6     2     3    2
     7     2    16    1
     8    16    17   ar
     9    17    18   ar
    10    18    19   ar
    11    19    20   ar
    12    20    22    1
    13    22    23   ar
    14    23    24   ar
    15    24    25   ar
    16    25    28    1
    17    28    29    1
    18    29    30    1
    19    25    26   ar
    20    26    27   ar
    21    20    21   ar
    22     8     9   ar
    23     9    11    1
    24    11    12   am
    25    11    13    2
    26     9    10   ar
    27    10     6   ar
    28    21    16   ar
    29    27    22   ar
    30    30    28    1
    31     1     4    1
    32    12    14    1
    33    12    15    1
@<TRIPOS>MOLECULE
*****
 30 33 0 0 0
SMALL
GASTEIGER

@<TRIPOS>ATOM
      1 N         142.4542  140.8494  167.2041 N.am    1  UNL1       -0.2766
      2 C         142.2237  141.6625  165.9649 C.2     1  UNL1        0.2673
      3 O         141.0220  142.5548  165.8660 O.2     1  UNL1       -0.2682
      4 H         143.2429  140.2638  167.2690 H       1  UNL1        0.1553
      5 C         138.2061  140.0820  170.2448 C.3     1  UNL1        0.1538
      6 N         139.5303  140.5758  169.7421 N.ar    1  UNL1       -0.2459
      7 C         140.1709  140.2073  168.4368 C.ar    1  UNL1        0.1115
      8 C         141.4829  140.9285  168.3445 C.ar    1  UNL1        0.0937
      9 C         141.6532  141.7427  169.5927 C.ar    1  UNL1        0.1686
     10 N         140.4464  141.5248  170.4565 N.ar    1  UNL1       -0.1632
     11 C         142.8245  142.6208  169.9197 C.2     1  UNL1        0.2635
     12 N         142.8498  143.3885  171.2081 N.am    1  UNL1       -0.3240
     13 O         143.9706  142.7311  168.9583 O.2     1  UNL1       -0.2686
     14 H         142.0976  143.3162  171.8391 H       1  UNL1        0.1453
     15 H         143.6186  143.9648  171.4227 H       1  UNL1        0.1453
     16 C         143.1950  141.5834  164.8245 C.ar    1  UNL1        0.1347
     17 C         144.4847  142.3470  164.8833 C.ar    1  UNL1        0.0238
     18 C         145.4558  142.2679  163.7429 C.ar    1  UNL1        0.0032
     19 C         145.1373  141.4251  162.5437 C.ar    1  UNL1        0.0192
     20 C         143.8477  140.6614  162.4848 C.ar    1  UNL1        0.0829
     21 N         142.8765  140.7406  163.6252 N.ar    1  UNL1       -0.2407
     22 C         143.5292  139.8186  161.2856 C.ar    1  UNL1        0.0368
     23 C         143.3194  138.3415  161.4413 C.ar    1  UNL1        0.0043
     24 C         143.0009  137.4987  160.2420 C.ar    1  UNL1        0.0148
     25 C         142.8921  138.1329  158.8871 C.ar    1  UNL1        0.0586
     26 N         143.1019  139.6099  158.7314 N.ar    1  UNL1       -0.2481
     27 C         143.4204  140.4528  159.9306 C.ar    1  UNL1        0.0999
     28 C         142.5736  137.2901  157.6878 C.3     1  UNL1        0.0403
     29 C         142.7183  136.0051  156.9277 C.3     1  UNL1        0.0063
     30 C         141.8773  137.1153  156.3708 C.3     1  UNL1        0.0063
@<TRIPOS>BOND
     1     5     6    1
     2     6     7   ar
     3     7     8   ar
     4     8     1    1
     5     1     2   am
     6     2     3    2
     7     2    16    1
     8    16    17   ar
     9    17    18   ar
    10    18    19   ar
    11    19    20   ar
    12    20    22    1
    13    22    23   ar
    14    23    24   ar
    15    24    25   ar
    16    25    28    1
    17    28    29    1
    18    29    30    1
    19    25    26   ar
    20    26    27   ar
    21    20    21   ar
    22     8     9   ar
    23     9    11    1
    24    11    12   am
    25    11    13    2
    26     9    10   ar
    27    10     6   ar
    28    21    16   ar
    29    27    22   ar
    30    30    28    1
    31     1     4    1
    32    12    14    1
    33    12    15    1
@<TRIPOS>MOLECULE
*****
 30 33 0 0 0
SMALL
GASTEIGER

@<TRIPOS>ATOM
      1 N         140.7036  142.0412  167.7391 N.am    1  UNL1       -0.2766
      2 C         141.3610  142.4014  166.4398 C.2     1  UNL1        0.2673
      3 O         142.7724  141.9718  166.1689 O.2     1  UNL1       -0.2682
      4 H         139.7773  142.3232  167.9169 H       1  UNL1        0.1553
      5 C         142.9434  138.0287  170.3399 C.3     1  UNL1        0.1538
      6 N         142.4872  139.4070  169.9630 N.ar    1  UNL1       -0.2459
      7 C         141.6892  139.7695  168.7456 C.ar    1  UNL1        0.1115
      8 C         141.4577  141.2514  168.7675 C.ar    1  UNL1        0.0937
      9 C         142.1126  141.8048  169.9983 C.ar    1  UNL1        0.1686
     10 N         142.7489  140.6650  170.7372 N.ar    1  UNL1       -0.1632
     11 C         142.1285  143.2451  170.4167 C.2     1  UNL1        0.2635
     12 N         143.3279  143.8089  171.1193 N.am    1  UNL1       -0.3240
     13 O         140.9449  144.1218  170.1326 O.2     1  UNL1       -0.2686
     14 H         144.1047  143.2336  171.3059 H       1  UNL1        0.1453
     15 H         143.3383  144.7543  171.3940 H       1  UNL1        0.1453
     16 C         140.6069  143.1912  165.4114 C.ar    1  UNL1        0.1347
     17 C         139.3922  143.9755  165.8104 C.ar    1  UNL1        0.0238
     18 C         138.6382  144.7653  164.7820 C.ar    1  UNL1        0.0032
     19 C         139.0989  144.7707  163.3545 C.ar    1  UNL1        0.0192
     20 C         140.3136  143.9864  162.9554 C.ar    1  UNL1        0.0829
     21 N         141.0676  143.1966  163.9839 N.ar    1  UNL1       -0.2407
     22 C         140.7743  143.9918  161.5279 C.ar    1  UNL1        0.0368
     23 C         140.8804  142.7023  160.7692 C.ar    1  UNL1        0.0043
     24 C         141.3411  142.7077  159.3417 C.ar    1  UNL1        0.0148
     25 C         141.6957  144.0027  158.6730 C.ar    1  UNL1        0.0586
     26 N         141.5896  145.2922  159.4317 N.ar    1  UNL1       -0.2481
     27 C         141.1289  145.2868  160.8592 C.ar    1  UNL1        0.0999
     28 C         142.1564  144.0081  157.2455 C.3     1  UNL1        0.0403
     29 C         142.0640  144.5574  155.8527 C.3     1  UNL1        0.0063
     30 C         143.0467  143.4683  156.1658 C.3     1  UNL1        0.0063
@<TRIPOS>BOND
     1     5     6    1
     2     6     7   ar
     3     7     8   ar
     4     8     1    1
     5     1     2   am
     6     2     3    2
     7     2    16    1
     8    16    17   ar
     9    17    18   ar
    10    18    19   ar
    11    19    20   ar
    12    20    22    1
    13    22    23   ar
    14    23    24   ar
    15    24    25   ar
    16    25    28    1
    17    28    29    1
    18    29    30    1
    19    25    26   ar
    20    26    27   ar
    21    20    21   ar
    22     8     9   ar
    23     9    11    1
    24    11    12   am
    25    11    13    2
    26     9    10   ar
    27    10     6   ar
    28    21    16   ar
    29    27    22   ar
    30    30    28    1
    31     1     4    1
    32    12    14    1
    33    12    15    1
@<TRIPOS>MOLECULE
*****
 30 33 0 0 0
SMALL
GASTEIGER

@<TRIPOS>ATOM
      1 N         141.0851  139.7978  166.9059 N.am    1  UNL1       -0.2766
      2 C         140.3447  140.5701  165.8545 C.2     1  UNL1        0.2673
      3 O         140.2022  142.0582  165.9778 O.2     1  UNL1       -0.2682
      4 H         141.1786  138.8211  166.8249 H       1  UNL1        0.1553
      5 C         144.3194  142.7061  169.8996 C.3     1  UNL1        0.1538
      6 N         143.1697  141.8505  169.4566 N.ar    1  UNL1       -0.2459
      7 C         142.9511  141.3150  168.0726 C.ar    1  UNL1        0.1115
      8 C         141.6830  140.5137  168.0806 C.ar    1  UNL1        0.0937
      9 C         141.1180  140.5540  169.4695 C.ar    1  UNL1        0.1686
     10 N         142.0368  141.3801  170.3200 N.ar    1  UNL1       -0.1632
     11 C         139.8558  139.8854  169.9275 C.2     1  UNL1        0.2635
     12 N         139.7168  139.4421  171.3538 N.am    1  UNL1       -0.3240
     13 O         138.7324  139.6602  168.9594 O.2     1  UNL1       -0.2686
     14 H         140.4541  139.5899  171.9893 H       1  UNL1        0.1453
     15 H         138.8884  139.0033  171.6544 H       1  UNL1        0.1453
     16 C         139.7467  139.8542  164.6797 C.ar    1  UNL1        0.1347
     17 C         139.4024  138.3980  164.7846 C.ar    1  UNL1        0.0238
     18 C         138.8044  137.6822  163.6099 C.ar    1  UNL1        0.0032
     19 C         138.5508  138.4226  162.3303 C.ar    1  UNL1        0.0192
     20 C         138.8951  139.8787  162.2253 C.ar    1  UNL1        0.0829
     21 N         139.4930  140.5945  163.4000 N.ar    1  UNL1       -0.2407
     22 C         138.6414  140.6191  160.9457 C.ar    1  UNL1        0.0368
     23 C         138.3253  139.8610  159.6906 C.ar    1  UNL1        0.0043
     24 C         138.0717  140.6013  158.4109 C.ar    1  UNL1        0.0148
     25 C         138.1341  142.0998  158.3863 C.ar    1  UNL1        0.0586
     26 N         138.4502  142.8579  159.6414 N.ar    1  UNL1       -0.2481
     27 C         138.7038  142.1175  160.9211 C.ar    1  UNL1        0.0999
     28 C         137.8804  142.8401  157.1067 C.3     1  UNL1        0.0403
     29 C         138.3423  143.7912  156.0427 C.3     1  UNL1        0.0063
     30 C         136.9792  143.1713  155.9542 C.3     1  UNL1        0.0063
@<TRIPOS>BOND
     1     5     6    1
     2     6     7   ar
     3     7     8   ar
     4     8     1    1
     5     1     2   am
     6     2     3    2
     7     2    16    1
     8    16    17   ar
     9    17    18   ar
    10    18    19   ar
    11    19    20   ar
    12    20    22    1
    13    22    23   ar
    14    23    24   ar
    15    24    25   ar
    16    25    28    1
    17    28    29    1
    18    29    30    1
    19    25    26   ar
    20    26    27   ar
    21    20    21   ar
    22     8     9   ar
    23     9    11    1
    24    11    12   am
    25    11    13    2
    26     9    10   ar
    27    10     6   ar
    28    21    16   ar
    29    27    22   ar
    30    30    28    1
    31     1     4    1
    32    12    14    1
    33    12    15    1
@<TRIPOS>MOLECULE
*****
 30 33 0 0 0
SMALL
GASTEIGER

@<TRIPOS>ATOM
      1 N         140.3672  142.4672  159.1927 N.am    1  UNL1       -0.2766
      2 C         139.2878  142.0530  160.1483 C.2     1  UNL1        0.2673
      3 O         138.0687  142.9099  160.3200 O.2     1  UNL1       -0.2682
      4 H         141.1673  141.9048  159.0800 H       1  UNL1        0.1553
      5 C         139.6858  145.8570  155.2020 C.3     1  UNL1        0.1538
      6 N         139.9143  145.2966  156.5744 N.ar    1  UNL1       -0.2459
      7 C         139.9864  143.8415  156.9319 C.ar    1  UNL1        0.1115
      8 C         140.2275  143.7385  158.4088 C.ar    1  UNL1        0.0937
      9 C         140.3046  145.1297  158.9641 C.ar    1  UNL1        0.1686
     10 N         140.1110  146.0927  157.8304 N.ar    1  UNL1       -0.1632
     11 C         140.5347  145.4940  160.4008 C.2     1  UNL1        0.2635
     12 N         141.8427  145.1655  161.0577 N.am    1  UNL1       -0.3240
     13 O         139.4570  146.1869  161.1809 O.2     1  UNL1       -0.2686
     14 H         142.5501  144.7107  160.5457 H       1  UNL1        0.1453
     15 H         141.9937  145.4046  162.0007 H       1  UNL1        0.1453
     16 C         139.4274  140.7817  160.9323 C.ar    1  UNL1        0.1347
     17 C         139.0266  139.4736  160.3174 C.ar    1  UNL1        0.0238
     18 C         139.1662  138.2024  161.1014 C.ar    1  UNL1        0.0032
     19 C         139.7067  138.2394  162.5001 C.ar    1  UNL1        0.0192
     20 C         140.1075  139.5475  163.1150 C.ar    1  UNL1        0.0829
     21 N         139.9679  140.8187  162.3310 N.ar    1  UNL1       -0.2407
     22 C         140.6480  139.5845  164.5137 C.ar    1  UNL1        0.0368
     23 C         141.8913  138.8192  164.8578 C.ar    1  UNL1        0.0043
     24 C         142.4318  138.8562  166.2566 C.ar    1  UNL1        0.0148
     25 C         141.7290  139.6584  167.3112 C.ar    1  UNL1        0.0586
     26 N         140.4856  140.4237  166.9671 N.ar    1  UNL1       -0.2481
     27 C         139.9452  140.3867  165.5684 C.ar    1  UNL1        0.0999
     28 C         142.2694  139.6954  168.7100 C.3     1  UNL1        0.0403
     29 C         142.8598  140.4644  169.8545 C.3     1  UNL1        0.0063
     30 C         142.6152  138.9905  169.9880 C.3     1  UNL1        0.0063
@<TRIPOS>BOND
     1     5     6    1
     2     6     7   ar
     3     7     8   ar
     4     8     1    1
     5     1     2   am
     6     2     3    2
     7     2    16    1
     8    16    17   ar
     9    17    18   ar
    10    18    19   ar
    11    19    20   ar
    12    20    22    1
    13    22    23   ar
    14    23    24   ar
    15    24    25   ar
    16    25    28    1
    17    28    29    1
    18    29    30    1
    19    25    26   ar
    20    26    27   ar
    21    20    21   ar
    22     8     9   ar
    23     9    11    1
    24    11    12   am
    25    11    13    2
    26     9    10   ar
    27    10     6   ar
    28    21    16   ar
    29    27    22   ar
    30    30    28    1
    31     1     4    1
    32    12    14    1
    33    12    15    1
@<TRIPOS>MOLECULE
*****
 30 33 0 0 0
SMALL
GASTEIGER

@<TRIPOS>ATOM
      1 N         139.2225  141.5029  159.1070 N.am    1  UNL1       -0.2766
      2 C         138.6170  141.6432  160.4722 C.2     1  UNL1        0.2673
      3 O         137.9753  142.9365  160.8788 O.2     1  UNL1       -0.2682
      4 H         139.6437  140.6540  158.8402 H       1  UNL1        0.1553
      5 C         140.4246  145.9981  156.6111 C.3     1  UNL1        0.1538
      6 N         139.7388  144.7224  157.0012 N.ar    1  UNL1       -0.2459
      7 C         140.1492  143.8058  158.1156 C.ar    1  UNL1        0.1115
      8 C         139.1863  142.6561  158.1484 C.ar    1  UNL1        0.0937
      9 C         138.1809  142.8621  157.0544 C.ar    1  UNL1        0.1686
     10 N         138.5223  144.1390  156.3454 N.ar    1  UNL1       -0.1632
     11 C         137.0352  141.9510  156.7270 C.2     1  UNL1        0.2635
     12 N         135.9526  142.4118  155.7966 N.am    1  UNL1       -0.3240
     13 O         136.9719  140.5790  157.3300 O.2     1  UNL1       -0.2686
     14 H         135.9941  143.3123  155.4008 H       1  UNL1        0.1453
     15 H         135.2007  141.8138  155.5817 H       1  UNL1        0.1453
     16 C         138.6532  140.4900  161.4308 C.ar    1  UNL1        0.1347
     17 C         137.9798  139.1977  161.0752 C.ar    1  UNL1        0.0238
     18 C         138.0161  138.0445  162.0338 C.ar    1  UNL1        0.0032
     19 C         138.7257  138.1837  163.3480 C.ar    1  UNL1        0.0192
     20 C         139.3990  139.4760  163.7036 C.ar    1  UNL1        0.0829
     21 N         139.3628  140.6291  162.7450 N.ar    1  UNL1       -0.2407
     22 C         140.1086  139.6152  165.0178 C.ar    1  UNL1        0.0368
     23 C         139.3342  139.9586  166.2556 C.ar    1  UNL1        0.0043
     24 C         140.0438  140.0978  167.5698 C.ar    1  UNL1        0.0148
     25 C         141.5278  139.8936  167.6462 C.ar    1  UNL1        0.0586
     26 N         142.3023  139.5502  166.4083 N.ar    1  UNL1       -0.2481
     27 C         141.5927  139.4110  165.0941 C.ar    1  UNL1        0.0999
     28 C         142.2374  140.0328  168.9604 C.3     1  UNL1        0.0403
     29 C         142.6413  139.4583  170.2858 C.3     1  UNL1        0.0063
     30 C         143.0626  140.8484  169.9111 C.3     1  UNL1        0.0063
@<TRIPOS>BOND
     1     5     6    1
     2     6     7   ar
     3     7     8   ar
     4     8     1    1
     5     1     2   am
     6     2     3    2
     7     2    16    1
     8    16    17   ar
     9    17    18   ar
    10    18    19   ar
    11    19    20   ar
    12    20    22    1
    13    22    23   ar
    14    23    24   ar
    15    24    25   ar
    16    25    28    1
    17    28    29    1
    18    29    30    1
    19    25    26   ar
    20    26    27   ar
    21    20    21   ar
    22     8     9   ar
    23     9    11    1
    24    11    12   am
    25    11    13    2
    26     9    10   ar
    27    10     6   ar
    28    21    16   ar
    29    27    22   ar
    30    30    28    1
    31     1     4    1
    32    12    14    1
    33    12    15    1
@<TRIPOS>MOLECULE
*****
 30 33 0 0 0
SMALL
GASTEIGER

@<TRIPOS>ATOM
      1 N         141.6579  140.8271  165.7785 N.am    1  UNL1       -0.2766
      2 C         141.3642  142.1070  165.0536 C.2     1  UNL1        0.2673
      3 O         140.2465  142.9928  165.5185 O.2     1  UNL1       -0.2682
      4 H         142.3915  140.2458  165.4734 H       1  UNL1        0.1553
      5 C         140.1120  139.9651  170.7533 C.3     1  UNL1        0.1538
      6 N         140.1234  140.0367  169.2551 N.ar    1  UNL1       -0.2459
      7 C         141.2516  140.5416  168.4050 C.ar    1  UNL1        0.1115
      8 C         140.8339  140.4330  166.9684 C.ar    1  UNL1        0.0937
      9 C         139.4477  139.8611  166.9305 C.ar    1  UNL1        0.1686
     10 N         139.0086  139.6162  168.3437 N.ar    1  UNL1       -0.1632
     11 C         138.6422  139.5830  165.6962 C.2     1  UNL1        0.2635
     12 N         137.9614  140.7086  164.9754 N.am    1  UNL1       -0.3240
     13 O         138.5174  138.1792  165.1824 O.2     1  UNL1       -0.2686
     14 H         138.0433  141.6300  165.3125 H       1  UNL1        0.1453
     15 H         137.4327  140.5261  164.1652 H       1  UNL1        0.1453
     16 C         142.1883  142.5012  163.8638 C.ar    1  UNL1        0.1347
     17 C         143.6617  142.2208  163.8458 C.ar    1  UNL1        0.0238
     18 C         144.4856  142.6150  162.6559 C.ar    1  UNL1        0.0032
     19 C         143.8361  143.2895  161.4841 C.ar    1  UNL1        0.0192
     20 C         142.3627  143.5699  161.5021 C.ar    1  UNL1        0.0829
     21 N         141.5388  143.1757  162.6919 N.ar    1  UNL1       -0.2407
     22 C         141.7132  144.2444  160.3303 C.ar    1  UNL1        0.0368
     23 C         142.2560  144.0335  158.9480 C.ar    1  UNL1        0.0043
     24 C         141.6065  144.7080  157.7761 C.ar    1  UNL1        0.0148
     25 C         140.4143  145.5935  157.9866 C.ar    1  UNL1        0.0586
     26 N         139.8715  145.8044  159.3689 N.ar    1  UNL1       -0.2481
     27 C         140.5210  145.1299  160.5408 C.ar    1  UNL1        0.0999
     28 C         139.7648  146.2680  156.8148 C.3     1  UNL1        0.0403
     29 C         139.1729  147.4945  156.1860 C.3     1  UNL1        0.0063
     30 C         139.2317  146.2098  155.4139 C.3     1  UNL1        0.0063
@<TRIPOS>BOND
     1     5     6    1
     2     6     7   ar
     3     7     8   ar
     4     8     1    1
     5     1     2   am
     6     2     3    2
     7     2    16    1
     8    16    17   ar
     9    17    18   ar
    10    18    19   ar
    11    19    20   ar
    12    20    22    1
    13    22    23   ar
    14    23    24   ar
    15    24    25   ar
    16    25    28    1
    17    28    29    1
    18    29    30    1
    19    25    26   ar
    20    26    27   ar
    21    20    21   ar
    22     8     9   ar
    23     9    11    1
    24    11    12   am
    25    11    13    2
    26     9    10   ar
    27    10     6   ar
    28    21    16   ar
    29    27    22   ar
    30    30    28    1
    31     1     4    1
    32    12    14    1
    33    12    15    1
@<TRIPOS>MOLECULE
*****
 30 33 0 0 0
SMALL
GASTEIGER

@<TRIPOS>ATOM
      1 N         142.0657  141.4061  167.2842 N.am    1  UNL1       -0.2766
      2 C         141.7179  142.3863  166.2033 C.2     1  UNL1        0.2673
      3 O         140.4627  143.2012  166.3054 O.2     1  UNL1       -0.2682
      4 H         142.8895  140.8713  167.2171 H       1  UNL1        0.1553
      5 C         137.9920  139.9866  170.3290 C.3     1  UNL1        0.1538
      6 N         139.2859  140.5884  169.8668 N.ar    1  UNL1       -0.2459
      7 C         139.8545  140.4994  168.4815 C.ar    1  UNL1        0.1115
      8 C         141.1584  141.2409  168.4672 C.ar    1  UNL1        0.0937
      9 C         141.3956  141.7881  169.8435 C.ar    1  UNL1        0.1686
     10 N         140.2384  141.3848  170.7085 N.ar    1  UNL1       -0.1632
     11 C         142.5818  142.5966  170.2785 C.2     1  UNL1        0.2635
     12 N         143.9469  141.9750  170.2975 N.am    1  UNL1       -0.3240
     13 O         142.4031  144.0266  170.6944 O.2     1  UNL1       -0.2686
     14 H         144.0643  141.0364  170.0245 H       1  UNL1        0.1453
     15 H         144.7255  142.5057  170.5829 H       1  UNL1        0.1453
     16 C         142.6252  142.5515  165.0203 C.ar    1  UNL1        0.1347
     17 C         144.0610  142.1272  165.1113 C.ar    1  UNL1        0.0238
     18 C         144.9683  142.2925  163.9283 C.ar    1  UNL1        0.0032
     19 C         144.4397  142.8820  162.6543 C.ar    1  UNL1        0.0192
     20 C         143.0039  143.3063  162.5633 C.ar    1  UNL1        0.0829
     21 N         142.0966  143.1410  163.7463 N.ar    1  UNL1       -0.2407
     22 C         142.4753  143.8958  161.2893 C.ar    1  UNL1        0.0368
     23 C         141.3328  144.8669  161.3296 C.ar    1  UNL1        0.0043
     24 C         140.8042  145.4564  160.0556 C.ar    1  UNL1        0.0148
     25 C         141.4181  145.0749  158.7413 C.ar    1  UNL1        0.0586
     26 N         142.5606  144.1038  158.7010 N.ar    1  UNL1       -0.2481
     27 C         143.0892  143.5143  159.9750 C.ar    1  UNL1        0.0999
     28 C         140.8895  145.6644  157.4673 C.3     1  UNL1        0.0403
     29 C         139.7976  146.3663  156.7157 C.3     1  UNL1        0.0063
     30 C         141.0660  145.9836  156.0124 C.3     1  UNL1        0.0063
@<TRIPOS>BOND
     1     5     6    1
     2     6     7   ar
     3     7     8   ar
     4     8     1    1
     5     1     2   am
     6     2     3    2
     7     2    16    1
     8    16    17   ar
     9    17    18   ar
    10    18    19   ar
    11    19    20   ar
    12    20    22    1
    13    22    23   ar
    14    23    24   ar
    15    24    25   ar
    16    25    28    1
    17    28    29    1
    18    29    30    1
    19    25    26   ar
    20    26    27   ar
    21    20    21   ar
    22     8     9   ar
    23     9    11    1
    24    11    12   am
    25    11    13    2
    26     9    10   ar
    27    10     6   ar
    28    21    16   ar
    29    27    22   ar
    30    30    28    1
    31     1     4    1
    32    12    14    1
    33    12    15    1
