@<TRIPOS>MOLECULE
*****
 35 39 0 0 0
SMALL
GASTEIGER

@<TRIPOS>ATOM
      1 N         140.5816  146.2786  162.5845 N.3     1  UNL1       -0.2985
      2 H         139.9625  146.8989  163.1064 H       1  UNL1        0.1232
      3 C         141.0252  145.2081  163.5370 C.3     1  UNL1        0.0543
      4 C         142.4379  144.7545  163.7577 C.3     1  UNL1        0.0160
      5 C         142.4198  143.6693  164.7930 C.3     1  UNL1        0.0055
      6 C         140.9960  143.4522  165.2123 C.3     1  UNL1        0.0224
      7 C         139.5111  143.4625  165.4243 C.3     1  UNL1        0.0058
      8 C         140.1341  144.4033  164.4360 C.3     1  UNL1        0.0186
      9 C         141.2883  142.3649  166.2033 C.ar    1  UNL1        0.0047
     10 C         141.9771  141.1091  165.7575 C.ar    1  UNL1       -0.0021
     11 C         142.2694  140.0217  166.7485 C.ar    1  UNL1        0.0037
     12 C         141.8730  140.1901  168.1855 C.ar    1  UNL1        0.0736
     13 C         141.1843  141.4459  168.6313 C.ar    1  UNL1        0.0332
     14 C         140.8919  142.5333  167.6401 C.ar    1  UNL1        0.1361
     15 F         140.2032  143.7890  168.0860 F       1  UNL1       -0.2045
     16 C         142.1654  139.1028  169.1765 C.3     1  UNL1        0.4186
     17 F         142.4577  138.0154  170.1676 F       1  UNL1       -0.1659
     18 F         143.2521  138.5812  168.2837 F       1  UNL1       -0.1659
     19 F         141.0787  139.6243  170.0693 F       1  UNL1       -0.1659
     20 C         139.8600  145.9079  161.3228 C.3     1  UNL1        0.0694
     21 C         140.6193  145.3239  160.1685 C.3     1  UNL1        0.0292
     22 C         140.9833  143.8688  160.1695 C.3     1  UNL1        0.0666
     23 S         139.9279  142.8316  159.9236 S.3     1  UNL1       -0.0756
     24 C         138.5076  140.9813  163.0259 C.ar    1  UNL1        0.2029
     25 N         137.3491  141.8598  162.6570 N.ar    1  UNL1       -0.1250
     26 N         137.7402  142.6599  161.4499 N.ar    1  UNL1       -0.1220
     27 C         139.1404  142.2758  161.0729 C.ar    1  UNL1        0.1933
     28 N         139.6146  141.2384  162.0469 N.ar    1  UNL1       -0.2860
     29 C         140.9597  140.5746  162.0427 C.3     1  UNL1        0.1341
     30 C         138.7528  137.7356  162.7915 C.3     1  UNL1        0.0556
     31 C         138.6640  138.5234  164.0649 C.ar    1  UNL1        0.1001
     32 N         138.6724  137.9577  165.4541 N.ar    1  UNL1       -0.2085
     33 C         138.5649  139.0999  166.4204 C.ar    1  UNL1        0.2849
     34 O         138.4900  140.3715  165.6284 O.2     1  UNL1       -0.4283
     35 C         138.5513  140.0153  164.1726 C.ar    1  UNL1        0.1964
@<TRIPOS>BOND
     1    30    31    1
     2    31    32   ar
     3    32    33   ar
     4    33    34   ar
     5    34    35   ar
     6    35    24    1
     7    24    25   ar
     8    25    26   ar
     9    26    27   ar
    10    27    23    1
    11    23    22    1
    12    22    21    1
    13    21    20    1
    14    20     1    1
    15     3     1    1
    16     3     4    1
    17     4     5    1
    18     5     6    1
    19     6     9    1
    20     9    10   ar
    21    10    11   ar
    22    11    12   ar
    23    12    16    1
    24    16    17    1
    25    16    18    1
    26    16    19    1
    27    12    13   ar
    28    13    14   ar
    29    14    15    1
    30     6     7    1
    31     7     8    1
    32    27    28   ar
    33    28    29    1
    34    35    31   ar
    35    28    24   ar
    36     8     3    1
    37     8     6    1
    38    14     9   ar
    39     1     2    1
@<TRIPOS>MOLECULE
*****
 35 39 0 0 0
SMALL
GASTEIGER

@<TRIPOS>ATOM
      1 N         138.8385  137.3505  163.1231 N.3     1  UNL1       -0.2985
      2 H         139.2583  136.4260  163.0257 H       1  UNL1        0.1232
      3 C         139.6330  138.0792  164.1660 C.3     1  UNL1        0.0543
      4 C         141.0250  137.7404  164.6104 C.3     1  UNL1        0.0160
      5 C         141.4272  138.7265  165.6667 C.3     1  UNL1        0.0055
      6 C         140.2838  139.6748  165.8752 C.3     1  UNL1        0.0224
      7 C         139.0002  140.4507  165.8623 C.3     1  UNL1        0.0058
      8 C         139.1749  139.2747  164.9477 C.3     1  UNL1        0.0186
      9 C         140.9544  140.4986  166.9342 C.ar    1  UNL1        0.0047
     10 C         142.1386  141.3503  166.5841 C.ar    1  UNL1       -0.0021
     11 C         142.8092  142.1742  167.6431 C.ar    1  UNL1        0.0037
     12 C         142.2957  142.1464  169.0523 C.ar    1  UNL1        0.0736
     13 C         141.1116  141.2947  169.4024 C.ar    1  UNL1        0.0332
     14 C         140.4409  140.4708  168.3433 C.ar    1  UNL1        0.1361
     15 F         139.2569  139.6191  168.6934 F       1  UNL1       -0.2045
     16 C         142.9663  142.9702  170.1113 C.3     1  UNL1        0.4186
     17 F         143.6369  143.7941  171.1703 F       1  UNL1       -0.1659
     18 F         144.1917  142.1120  170.0029 F       1  UNL1       -0.1659
     19 F         141.7408  143.8284  170.2197 F       1  UNL1       -0.1659
     20 C         138.7167  137.9186  161.7402 C.3     1  UNL1        0.0694
     21 C         137.5529  138.7978  161.3902 C.3     1  UNL1        0.0292
     22 C         137.7662  140.2621  161.1447 C.3     1  UNL1        0.0666
     23 S         137.5020  141.2524  162.2400 S.3     1  UNL1       -0.0756
     24 C         140.3349  143.8694  162.6773 C.ar    1  UNL1        0.2029
     25 N         139.1337  144.7598  162.5578 N.ar    1  UNL1       -0.1250
     26 N         137.9263  143.8879  162.3794 N.ar    1  UNL1       -0.1220
     27 C         138.3813  142.4585  162.3887 C.ar    1  UNL1        0.1933
     28 N         139.8699  142.4471  162.5728 N.ar    1  UNL1       -0.2860
     29 C         140.7406  141.2276  162.6405 C.3     1  UNL1        0.1341
     30 C         142.7822  143.4544  160.5589 C.3     1  UNL1        0.0556
     31 C         142.8772  144.1311  161.8941 C.ar    1  UNL1        0.1001
     32 N         144.1138  144.7358  162.4902 N.ar    1  UNL1       -0.2085
     33 C         143.7531  145.3003  163.8322 C.ar    1  UNL1        0.2849
     34 O         142.2937  145.0444  164.0657 O.2     1  UNL1       -0.4283
     35 C         141.7523  144.3218  162.8679 C.ar    1  UNL1        0.1964
@<TRIPOS>BOND
     1    30    31    1
     2    31    32   ar
     3    32    33   ar
     4    33    34   ar
     5    34    35   ar
     6    35    24    1
     7    24    25   ar
     8    25    26   ar
     9    26    27   ar
    10    27    23    1
    11    23    22    1
    12    22    21    1
    13    21    20    1
    14    20     1    1
    15     3     1    1
    16     3     4    1
    17     4     5    1
    18     5     6    1
    19     6     9    1
    20     9    10   ar
    21    10    11   ar
    22    11    12   ar
    23    12    16    1
    24    16    17    1
    25    16    18    1
    26    16    19    1
    27    12    13   ar
    28    13    14   ar
    29    14    15    1
    30     6     7    1
    31     7     8    1
    32    27    28   ar
    33    28    29    1
    34    35    31   ar
    35    28    24   ar
    36     8     3    1
    37     8     6    1
    38    14     9   ar
    39     1     2    1
@<TRIPOS>MOLECULE
*****
 35 39 0 0 0
SMALL
GASTEIGER

@<TRIPOS>ATOM
      1 N         138.6033  137.5629  162.7372 N.3     1  UNL1       -0.2985
      2 H         138.9532  136.6085  162.6524 H       1  UNL1        0.1232
      3 C         139.3935  138.2182  163.8309 C.3     1  UNL1        0.0543
      4 C         140.6604  137.6937  164.4390 C.3     1  UNL1        0.0160
      5 C         141.1054  138.6645  165.4924 C.3     1  UNL1        0.0055
      6 C         140.1135  139.7888  165.5354 C.3     1  UNL1        0.0224
      7 C         138.9790  140.7524  165.3500 C.3     1  UNL1        0.0058
      8 C         139.0554  139.5130  164.5085 C.3     1  UNL1        0.0186
      9 C         140.7957  140.5581  166.6275 C.ar    1  UNL1        0.0047
     10 C         142.0031  141.3919  166.3161 C.ar    1  UNL1       -0.0021
     11 C         142.6853  142.1612  167.4083 C.ar    1  UNL1        0.0037
     12 C         142.1600  142.0967  168.8119 C.ar    1  UNL1        0.0736
     13 C         140.9526  141.2629  169.1233 C.ar    1  UNL1        0.0332
     14 C         140.2704  140.4936  168.0311 C.ar    1  UNL1        0.1361
     15 F         139.0630  139.6598  168.3425 F       1  UNL1       -0.2045
     16 C         142.8422  142.8659  169.9041 C.3     1  UNL1        0.4186
     17 F         143.5244  143.6352  170.9962 F       1  UNL1       -0.1659
     18 F         141.6209  143.7220  170.0640 F       1  UNL1       -0.1659
     19 F         144.0635  142.0099  169.7442 F       1  UNL1       -0.1659
     20 C         138.6046  138.1489  161.3565 C.3     1  UNL1        0.0694
     21 C         137.7775  139.3639  161.0565 C.3     1  UNL1        0.0292
     22 C         137.7221  139.9072  159.6595 C.3     1  UNL1        0.0666
     23 S         138.8046  140.8214  159.1669 S.3     1  UNL1       -0.0756
     24 C         140.5547  143.4415  161.4335 C.ar    1  UNL1        0.2029
     25 N         139.2546  144.1312  161.1437 N.ar    1  UNL1       -0.1250
     26 N         138.4407  143.2337  160.2594 N.ar    1  UNL1       -0.1220
     27 C         139.2379  141.9892  160.0026 C.ar    1  UNL1        0.1933
     28 N         140.5444  142.1177  160.7283 N.ar    1  UNL1       -0.2860
     29 C         141.6469  141.1008  160.7456 C.3     1  UNL1        0.1341
     30 C         140.3592  144.2138  164.5981 C.3     1  UNL1        0.0556
     31 C         141.5795  144.3359  163.7345 C.ar    1  UNL1        0.1001
     32 N         142.9244  144.8345  164.1739 N.ar    1  UNL1       -0.2085
     33 C         143.8453  144.7876  162.9909 C.ar    1  UNL1        0.2849
     34 O         143.0697  144.2601  161.8203 O.2     1  UNL1       -0.4283
     35 C         141.6694  143.9809  162.2799 C.ar    1  UNL1        0.1964
@<TRIPOS>BOND
     1    30    31    1
     2    31    32   ar
     3    32    33   ar
     4    33    34   ar
     5    34    35   ar
     6    35    24    1
     7    24    25   ar
     8    25    26   ar
     9    26    27   ar
    10    27    23    1
    11    23    22    1
    12    22    21    1
    13    21    20    1
    14    20     1    1
    15     3     1    1
    16     3     4    1
    17     4     5    1
    18     5     6    1
    19     6     9    1
    20     9    10   ar
    21    10    11   ar
    22    11    12   ar
    23    12    16    1
    24    16    17    1
    25    16    18    1
    26    16    19    1
    27    12    13   ar
    28    13    14   ar
    29    14    15    1
    30     6     7    1
    31     7     8    1
    32    27    28   ar
    33    28    29    1
    34    35    31   ar
    35    28    24   ar
    36     8     3    1
    37     8     6    1
    38    14     9   ar
    39     1     2    1
@<TRIPOS>MOLECULE
*****
 35 39 0 0 0
SMALL
GASTEIGER

@<TRIPOS>ATOM
      1 N         138.6293  137.3421  162.9832 N.3     1  UNL1       -0.2985
      2 H         139.0680  136.4325  162.8397 H       1  UNL1        0.1232
      3 C         139.4351  138.0509  164.0313 C.3     1  UNL1        0.0543
      4 C         140.8163  137.6789  164.4829 C.3     1  UNL1        0.0160
      5 C         141.2359  138.6543  165.5424 C.3     1  UNL1        0.0055
      6 C         140.1141  139.6291  165.7456 C.3     1  UNL1        0.0224
      7 C         138.8493  140.4352  165.7264 C.3     1  UNL1        0.0058
      8 C         139.0011  139.2562  164.8117 C.3     1  UNL1        0.0186
      9 C         140.7982  140.4359  166.8091 C.ar    1  UNL1        0.0047
     10 C         140.3997  140.2739  168.2461 C.ar    1  UNL1       -0.0021
     11 C         141.0838  141.0807  169.3096 C.ar    1  UNL1        0.0037
     12 C         142.1664  142.0496  168.9361 C.ar    1  UNL1        0.0736
     13 C         142.5649  142.2116  167.4991 C.ar    1  UNL1        0.0332
     14 C         141.8807  141.4047  166.4356 C.ar    1  UNL1        0.1361
     15 F         142.2793  141.5667  164.9986 F       1  UNL1       -0.2045
     16 C         142.8505  142.8564  169.9996 C.3     1  UNL1        0.4186
     17 F         143.5345  143.6632  171.0631 F       1  UNL1       -0.1659
     18 F         144.0050  141.8990  169.9833 F       1  UNL1       -0.1659
     19 F         141.6959  143.8138  170.0159 F       1  UNL1       -0.1659
     20 C         138.4558  137.9581  161.6266 C.3     1  UNL1        0.0694
     21 C         137.8679  139.3320  161.4962 C.3     1  UNL1        0.0292
     22 C         137.6469  139.9273  160.1373 C.3     1  UNL1        0.0666
     23 S         138.7666  140.6419  159.4405 S.3     1  UNL1       -0.0756
     24 C         140.6609  143.4892  161.2762 C.ar    1  UNL1        0.2029
     25 N         139.6427  144.2715  160.5008 N.ar    1  UNL1       -0.1250
     26 N         138.8092  143.3001  159.7187 N.ar    1  UNL1       -0.1220
     27 C         139.3122  141.9174  160.0108 C.ar    1  UNL1        0.1933
     28 N         140.4566  142.0343  160.9735 N.ar    1  UNL1       -0.2860
     29 C         141.2563  140.8962  161.5347 C.3     1  UNL1        0.1341
     30 C         140.2146  144.3212  164.4001 C.3     1  UNL1        0.0556
     31 C         141.4956  144.4438  163.6294 C.ar    1  UNL1        0.1001
     32 N         142.7964  144.9703  164.1592 N.ar    1  UNL1       -0.2085
     33 C         143.8054  144.9133  163.0508 C.ar    1  UNL1        0.2849
     34 O         143.1282  144.3516  161.8360 O.2     1  UNL1       -0.4283
     35 C         141.7007  144.0613  162.1935 C.ar    1  UNL1        0.1964
@<TRIPOS>BOND
     1    30    31    1
     2    31    32   ar
     3    32    33   ar
     4    33    34   ar
     5    34    35   ar
     6    35    24    1
     7    24    25   ar
     8    25    26   ar
     9    26    27   ar
    10    27    23    1
    11    23    22    1
    12    22    21    1
    13    21    20    1
    14    20     1    1
    15     3     1    1
    16     3     4    1
    17     4     5    1
    18     5     6    1
    19     6     9    1
    20     9    10   ar
    21    10    11   ar
    22    11    12   ar
    23    12    16    1
    24    16    17    1
    25    16    18    1
    26    16    19    1
    27    12    13   ar
    28    13    14   ar
    29    14    15    1
    30     6     7    1
    31     7     8    1
    32    27    28   ar
    33    28    29    1
    34    35    31   ar
    35    28    24   ar
    36     8     3    1
    37     8     6    1
    38    14     9   ar
    39     1     2    1
@<TRIPOS>MOLECULE
*****
 35 39 0 0 0
SMALL
GASTEIGER

@<TRIPOS>ATOM
      1 N         144.4786  138.4356  162.0401 N.3     1  UNL1       -0.2985
      2 H         145.4924  138.5464  162.0278 H       1  UNL1        0.1232
      3 C         143.9740  139.1996  163.2283 C.3     1  UNL1        0.0543
      4 C         144.6954  140.3092  163.9343 C.3     1  UNL1        0.0160
      5 C         143.8266  140.7834  165.0614 C.3     1  UNL1        0.0055
      6 C         142.5683  139.9670  165.0520 C.3     1  UNL1        0.0224
      7 C         141.4425  139.0095  164.7957 C.3     1  UNL1        0.0058
      8 C         142.6594  138.9881  163.9191 C.3     1  UNL1        0.0186
      9 C         141.9350  140.6414  166.2327 C.ar    1  UNL1        0.0047
     10 C         141.1588  141.9110  166.0439 C.ar    1  UNL1       -0.0021
     11 C         140.5255  142.5854  167.2246 C.ar    1  UNL1        0.0037
     12 C         140.6682  141.9902  168.5941 C.ar    1  UNL1        0.0736
     13 C         141.4444  140.7205  168.7829 C.ar    1  UNL1        0.0332
     14 C         142.0777  140.0461  167.6021 C.ar    1  UNL1        0.1361
     15 F         142.8539  138.7765  167.7909 F       1  UNL1       -0.2045
     16 C         140.0349  142.6646  169.7748 C.3     1  UNL1        0.4186
     17 F         139.4015  143.3390  170.9554 F       1  UNL1       -0.1659
     18 F         140.7756  143.9280  169.4505 F       1  UNL1       -0.1659
     19 F         139.2941  141.4012  170.0990 F       1  UNL1       -0.1659
     20 C         143.9886  138.7788  160.6646 C.3     1  UNL1        0.0694
     21 C         143.7846  140.2136  160.2773 C.3     1  UNL1        0.0292
     22 C         143.7177  140.5971  158.8287 C.3     1  UNL1        0.0666
     23 S         142.6522  141.5384  158.3506 S.3     1  UNL1       -0.0756
     24 C         140.8493  143.7959  160.9427 C.ar    1  UNL1        0.2029
     25 N         141.8559  144.7525  160.3758 N.ar    1  UNL1       -0.1250
     26 N         142.6538  144.0234  159.3358 N.ar    1  UNL1       -0.1220
     27 C         142.1403  142.6160  159.2599 C.ar    1  UNL1        0.1933
     28 N         141.0250  142.4754  160.2531 N.ar    1  UNL1       -0.2860
     29 C         140.2258  141.2326  160.5113 C.3     1  UNL1        0.1341
     30 C         141.5066  144.9945  163.9060 C.3     1  UNL1        0.0556
     31 C         140.1456  144.6563  163.3737 C.ar    1  UNL1        0.1001
     32 N         138.8477  144.8097  164.1100 N.ar    1  UNL1       -0.2085
     33 C         137.7436  144.3535  163.2030 C.ar    1  UNL1        0.2849
     34 O         138.3590  143.9183  161.9062 O.2     1  UNL1       -0.4283
     35 C         139.8435  144.1054  162.0116 C.ar    1  UNL1        0.1964
@<TRIPOS>BOND
     1    30    31    1
     2    31    32   ar
     3    32    33   ar
     4    33    34   ar
     5    34    35   ar
     6    35    24    1
     7    24    25   ar
     8    25    26   ar
     9    26    27   ar
    10    27    23    1
    11    23    22    1
    12    22    21    1
    13    21    20    1
    14    20     1    1
    15     3     1    1
    16     3     4    1
    17     4     5    1
    18     5     6    1
    19     6     9    1
    20     9    10   ar
    21    10    11   ar
    22    11    12   ar
    23    12    16    1
    24    16    17    1
    25    16    18    1
    26    16    19    1
    27    12    13   ar
    28    13    14   ar
    29    14    15    1
    30     6     7    1
    31     7     8    1
    32    27    28   ar
    33    28    29    1
    34    35    31   ar
    35    28    24   ar
    36     8     3    1
    37     8     6    1
    38    14     9   ar
    39     1     2    1
@<TRIPOS>MOLECULE
*****
 35 39 0 0 0
SMALL
GASTEIGER

@<TRIPOS>ATOM
      1 N         138.7087  137.7253  161.3879 N.3     1  UNL1       -0.2985
      2 H         138.9731  136.7453  161.2879 H       1  UNL1        0.1232
      3 C         139.1144  138.1444  162.7699 C.3     1  UNL1        0.0543
      4 C         140.1704  137.4944  163.6140 C.3     1  UNL1        0.0160
      5 C         140.2439  138.2353  164.9161 C.3     1  UNL1        0.0055
      6 C         139.2334  139.3431  164.8769 C.3     1  UNL1        0.0224
      7 C         138.1607  140.3396  164.5511 C.3     1  UNL1        0.0058
      8 C         138.5353  139.2870  163.5504 C.3     1  UNL1        0.0186
      9 C         139.5312  139.8757  166.2471 C.ar    1  UNL1        0.0047
     10 C         140.6385  140.8688  166.4415 C.ar    1  UNL1       -0.0021
     11 C         140.9363  141.4013  167.8118 C.ar    1  UNL1        0.0037
     12 C         140.1269  140.9408  168.9878 C.ar    1  UNL1        0.0736
     13 C         139.0196  139.9477  168.7934 C.ar    1  UNL1        0.0332
     14 C         138.7218  139.4151  167.4230 C.ar    1  UNL1        0.1361
     15 F         137.6145  138.4220  167.2287 F       1  UNL1       -0.2045
     16 C         140.4247  141.4733  170.3580 C.3     1  UNL1        0.4186
     17 F         140.7225  142.0059  171.7283 F       1  UNL1       -0.1659
     18 F         139.2740  142.4279  170.2372 F       1  UNL1       -0.1659
     19 F         141.5754  140.5188  170.4789 F       1  UNL1       -0.1659
     20 C         139.2594  138.4465  160.1935 C.3     1  UNL1        0.0694
     21 C         140.7351  138.6901  160.0790 C.3     1  UNL1        0.0292
     22 C         141.2646  139.5974  159.0083 C.3     1  UNL1        0.0666
     23 S         141.7687  140.9643  159.3654 S.3     1  UNL1       -0.0756
     24 C         139.6270  143.2702  161.6371 C.ar    1  UNL1        0.2029
     25 N         139.2120  143.7396  160.2743 N.ar    1  UNL1       -0.1250
     26 N         139.9638  142.9330  159.2574 N.ar    1  UNL1       -0.1220
     27 C         140.8434  141.9650  159.9918 C.ar    1  UNL1        0.1933
     28 N         140.6352  142.1734  161.4626 N.ar    1  UNL1       -0.2860
     29 C         141.3158  141.4178  162.5651 C.3     1  UNL1        0.1341
     30 C         141.3426  145.0369  163.7783 C.3     1  UNL1        0.0556
     31 C         139.9109  144.6160  163.9292 C.ar    1  UNL1        0.1001
     32 N         139.0162  144.9332  165.0907 N.ar    1  UNL1       -0.2085
     33 C         137.6749  144.3171  164.8244 C.ar    1  UNL1        0.2849
     34 O         137.7404  143.6192  163.4983 O.2     1  UNL1       -0.4283
     35 C         139.1223  143.8039  162.9450 C.ar    1  UNL1        0.1964
@<TRIPOS>BOND
     1    30    31    1
     2    31    32   ar
     3    32    33   ar
     4    33    34   ar
     5    34    35   ar
     6    35    24    1
     7    24    25   ar
     8    25    26   ar
     9    26    27   ar
    10    27    23    1
    11    23    22    1
    12    22    21    1
    13    21    20    1
    14    20     1    1
    15     3     1    1
    16     3     4    1
    17     4     5    1
    18     5     6    1
    19     6     9    1
    20     9    10   ar
    21    10    11   ar
    22    11    12   ar
    23    12    16    1
    24    16    17    1
    25    16    18    1
    26    16    19    1
    27    12    13   ar
    28    13    14   ar
    29    14    15    1
    30     6     7    1
    31     7     8    1
    32    27    28   ar
    33    28    29    1
    34    35    31   ar
    35    28    24   ar
    36     8     3    1
    37     8     6    1
    38    14     9   ar
    39     1     2    1
@<TRIPOS>MOLECULE
*****
 35 39 0 0 0
SMALL
GASTEIGER

@<TRIPOS>ATOM
      1 N         142.8064  137.2812  161.2295 N.3     1  UNL1       -0.2985
      2 H         143.6941  136.7859  161.3135 H       1  UNL1        0.1232
      3 C         142.6200  138.0546  162.5012 C.3     1  UNL1        0.0543
      4 C         141.3208  138.2715  163.2187 C.3     1  UNL1        0.0160
      5 C         141.5979  139.0977  164.4396 C.3     1  UNL1        0.0055
      6 C         143.0684  139.3915  164.4765 C.3     1  UNL1        0.0224
      7 C         144.5455  139.5179  164.2483 C.3     1  UNL1        0.0058
      8 C         143.7001  138.7467  163.2785 C.3     1  UNL1        0.0186
      9 C         143.0368  140.1912  165.7451 C.ar    1  UNL1        0.0047
     10 C         142.7026  139.5222  167.0454 C.ar    1  UNL1       -0.0021
     11 C         142.6709  140.3220  168.3140 C.ar    1  UNL1        0.0037
     12 C         142.9734  141.7909  168.2823 C.ar    1  UNL1        0.0736
     13 C         143.3076  142.4599  166.9820 C.ar    1  UNL1        0.0332
     14 C         143.3393  141.6601  165.7134 C.ar    1  UNL1        0.1361
     15 F         143.6735  142.3292  164.4132 F       1  UNL1       -0.2045
     16 C         142.9418  142.5907  169.5509 C.3     1  UNL1        0.4186
     17 F         142.9101  143.3905  170.8195 F       1  UNL1       -0.1659
     18 F         144.4118  142.3562  169.7354 F       1  UNL1       -0.1659
     19 F         141.4718  142.8252  169.3664 F       1  UNL1       -0.1659
     20 C         142.8340  137.9988  159.9125 C.3     1  UNL1        0.0694
     21 C         141.7394  138.9620  159.5601 C.3     1  UNL1        0.0292
     22 C         140.3144  138.4957  159.5192 C.3     1  UNL1        0.0666
     23 S         139.1980  139.4775  159.7185 S.3     1  UNL1       -0.0756
     24 C         138.7779  141.2133  163.1646 C.ar    1  UNL1        0.2029
     25 N         137.8078  140.0764  163.2926 N.ar    1  UNL1       -0.1250
     26 N         137.8471  139.2878  162.0172 N.ar    1  UNL1       -0.1220
     27 C         138.8415  139.9373  161.1010 C.ar    1  UNL1        0.1933
     28 N         139.4167  141.1273  161.8102 N.ar    1  UNL1       -0.2860
     29 C         140.4495  142.0665  161.2613 C.3     1  UNL1        0.1341
     30 C         137.7457  144.3088  163.1149 C.3     1  UNL1        0.0556
     31 C         138.5852  143.6764  164.1851 C.ar    1  UNL1        0.1001
     32 N         139.0977  144.3557  165.4204 N.ar    1  UNL1       -0.2085
     33 C         139.8888  143.3528  166.2066 C.ar    1  UNL1        0.2849
     34 O         139.8652  142.0536  165.4573 O.2     1  UNL1       -0.4283
     35 C         139.0596  142.2535  164.2079 C.ar    1  UNL1        0.1964
@<TRIPOS>BOND
     1    30    31    1
     2    31    32   ar
     3    32    33   ar
     4    33    34   ar
     5    34    35   ar
     6    35    24    1
     7    24    25   ar
     8    25    26   ar
     9    26    27   ar
    10    27    23    1
    11    23    22    1
    12    22    21    1
    13    21    20    1
    14    20     1    1
    15     3     1    1
    16     3     4    1
    17     4     5    1
    18     5     6    1
    19     6     9    1
    20     9    10   ar
    21    10    11   ar
    22    11    12   ar
    23    12    16    1
    24    16    17    1
    25    16    18    1
    26    16    19    1
    27    12    13   ar
    28    13    14   ar
    29    14    15    1
    30     6     7    1
    31     7     8    1
    32    27    28   ar
    33    28    29    1
    34    35    31   ar
    35    28    24   ar
    36     8     3    1
    37     8     6    1
    38    14     9   ar
    39     1     2    1
@<TRIPOS>MOLECULE
*****
 35 39 0 0 0
SMALL
GASTEIGER

@<TRIPOS>ATOM
      1 N         144.5209  138.4735  162.1029 N.3     1  UNL1       -0.2985
      2 H         145.5131  138.6969  162.0261 H       1  UNL1        0.1232
      3 C         143.9938  139.2413  163.2787 C.3     1  UNL1        0.0543
      4 C         144.6403  140.4375  163.9121 C.3     1  UNL1        0.0160
      5 C         143.7737  140.8832  165.0524 C.3     1  UNL1        0.0055
      6 C         142.5917  139.9624  165.1239 C.3     1  UNL1        0.0224
      7 C         141.5452  138.9021  164.9493 C.3     1  UNL1        0.0058
      8 C         142.7278  138.9476  164.0276 C.3     1  UNL1        0.0186
      9 C         141.9440  140.6298  166.3008 C.ar    1  UNL1        0.0047
     10 C         141.0813  141.8397  166.0958 C.ar    1  UNL1       -0.0021
     11 C         140.4336  142.5070  167.2727 C.ar    1  UNL1        0.0037
     12 C         140.6485  141.9645  168.6546 C.ar    1  UNL1        0.0736
     13 C         141.5112  140.7546  168.8595 C.ar    1  UNL1        0.0332
     14 C         142.1589  140.0872  167.6826 C.ar    1  UNL1        0.1361
     15 F         143.0216  138.8773  167.8876 F       1  UNL1       -0.2045
     16 C         140.0008  142.6318  169.8315 C.3     1  UNL1        0.4186
     17 F         139.3530  143.2992  171.0083 F       1  UNL1       -0.1659
     18 F         140.4603  143.9676  169.3270 F       1  UNL1       -0.1659
     19 F         139.5412  141.2961  170.3360 F       1  UNL1       -0.1659
     20 C         143.9237  138.6814  160.7427 C.3     1  UNL1        0.0694
     21 C         142.8493  137.7599  160.2463 C.3     1  UNL1        0.0292
     22 C         142.0521  138.1242  159.0291 C.3     1  UNL1        0.0666
     23 S         141.6536  139.5509  158.7930 S.3     1  UNL1       -0.0756
     24 C         138.9327  141.3147  160.9262 C.ar    1  UNL1        0.2029
     25 N         138.0873  140.5765  159.9310 N.ar    1  UNL1       -0.1250
     26 N         139.0037  139.8260  159.0107 N.ar    1  UNL1       -0.1220
     27 C         140.4154  140.1003  159.4372 C.ar    1  UNL1        0.1933
     28 N         140.3715  141.0203  160.6211 N.ar    1  UNL1       -0.2860
     29 C         141.5581  141.5526  161.3685 C.3     1  UNL1        0.1341
     30 C         138.2529  140.3629  163.9728 C.3     1  UNL1        0.0556
     31 C         138.1153  141.7555  163.4328 C.ar    1  UNL1        0.1001
     32 N         137.6411  142.9552  164.1983 N.ar    1  UNL1       -0.2085
     33 C         137.6605  144.1340  163.2711 C.ar    1  UNL1        0.2849
     34 O         138.1467  143.6630  161.9325 O.2     1  UNL1       -0.4283
     35 C         138.4278  142.1930  162.0324 C.ar    1  UNL1        0.1964
@<TRIPOS>BOND
     1    30    31    1
     2    31    32   ar
     3    32    33   ar
     4    33    34   ar
     5    34    35   ar
     6    35    24    1
     7    24    25   ar
     8    25    26   ar
     9    26    27   ar
    10    27    23    1
    11    23    22    1
    12    22    21    1
    13    21    20    1
    14    20     1    1
    15     3     1    1
    16     3     4    1
    17     4     5    1
    18     5     6    1
    19     6     9    1
    20     9    10   ar
    21    10    11   ar
    22    11    12   ar
    23    12    16    1
    24    16    17    1
    25    16    18    1
    26    16    19    1
    27    12    13   ar
    28    13    14   ar
    29    14    15    1
    30     6     7    1
    31     7     8    1
    32    27    28   ar
    33    28    29    1
    34    35    31   ar
    35    28    24   ar
    36     8     3    1
    37     8     6    1
    38    14     9   ar
    39     1     2    1
@<TRIPOS>MOLECULE
*****
 35 39 0 0 0
SMALL
GASTEIGER

@<TRIPOS>ATOM
      1 N         142.6564  137.5066  161.0584 N.3     1  UNL1       -0.2985
      2 H         143.6739  137.4349  161.0546 H       1  UNL1        0.1232
      3 C         142.2493  137.8143  162.4689 C.3     1  UNL1        0.0543
      4 C         141.1457  137.1458  163.2339 C.3     1  UNL1        0.0160
      5 C         141.0887  137.7629  164.5998 C.3     1  UNL1        0.0055
      6 C         142.1571  138.8129  164.6791 C.3     1  UNL1        0.0224
      7 C         143.2867  139.7758  164.4634 C.3     1  UNL1        0.0058
      8 C         142.8744  138.8446  163.3621 C.3     1  UNL1        0.0186
      9 C         141.8639  139.2287  166.0902 C.ar    1  UNL1        0.0047
     10 C         140.5956  139.9641  166.4072 C.ar    1  UNL1       -0.0021
     11 C         140.3024  140.3799  167.8183 C.ar    1  UNL1        0.0037
     12 C         141.2776  140.0603  168.9124 C.ar    1  UNL1        0.0736
     13 C         142.5459  139.3248  168.5954 C.ar    1  UNL1        0.0332
     14 C         142.8390  138.9090  167.1842 C.ar    1  UNL1        0.1361
     15 F         144.1074  138.1736  166.8673 F       1  UNL1       -0.2045
     16 C         140.9844  140.4761  170.3235 C.3     1  UNL1        0.4186
     17 F         140.6912  140.8919  171.7346 F       1  UNL1       -0.1659
     18 F         139.6580  141.0236  169.8866 F       1  UNL1       -0.1659
     19 F         142.3108  139.9286  170.7604 F       1  UNL1       -0.1659
     20 C         142.2843  138.4448  159.9488 C.3     1  UNL1        0.0694
     21 C         141.0451  139.2828  160.0589 C.3     1  UNL1        0.0292
     22 C         139.7254  138.7335  159.6045 C.3     1  UNL1        0.0666
     23 S         138.4638  139.5026  159.8630 S.3     1  UNL1       -0.0756
     24 C         138.6829  142.6603  162.1094 C.ar    1  UNL1        0.2029
     25 N         138.5864  143.2801  160.7469 N.ar    1  UNL1       -0.1250
     26 N         138.4925  142.1727  159.7395 N.ar    1  UNL1       -0.1220
     27 C         138.5311  140.8684  160.4795 C.ar    1  UNL1        0.1933
     28 N         138.6487  141.1698  161.9442 N.ar    1  UNL1       -0.2860
     29 C         138.7198  140.1583  163.0495 C.3     1  UNL1        0.1341
     30 C         141.3231  142.7908  164.0231 C.3     1  UNL1        0.0556
     31 C         140.0077  143.4610  164.2886 C.ar    1  UNL1        0.1001
     32 N         139.6748  144.3089  165.4805 N.ar    1  UNL1       -0.2085
     33 C         138.2556  144.7728  165.3374 C.ar    1  UNL1        0.2849
     34 O         137.7113  144.2117  164.0572 O.2     1  UNL1       -0.4283
     35 C         138.7941  143.4010  163.4090 C.ar    1  UNL1        0.1964
@<TRIPOS>BOND
     1    30    31    1
     2    31    32   ar
     3    32    33   ar
     4    33    34   ar
     5    34    35   ar
     6    35    24    1
     7    24    25   ar
     8    25    26   ar
     9    26    27   ar
    10    27    23    1
    11    23    22    1
    12    22    21    1
    13    21    20    1
    14    20     1    1
    15     3     1    1
    16     3     4    1
    17     4     5    1
    18     5     6    1
    19     6     9    1
    20     9    10   ar
    21    10    11   ar
    22    11    12   ar
    23    12    16    1
    24    16    17    1
    25    16    18    1
    26    16    19    1
    27    12    13   ar
    28    13    14   ar
    29    14    15    1
    30     6     7    1
    31     7     8    1
    32    27    28   ar
    33    28    29    1
    34    35    31   ar
    35    28    24   ar
    36     8     3    1
    37     8     6    1
    38    14     9   ar
    39     1     2    1
