@<TRIPOS>MOLECULE
*****
 31 35 0 0 0
SMALL
GASTEIGER

@<TRIPOS>ATOM
      1 C         142.5721  140.7446  163.8210 C.ar    1  UNL1        0.0833
      2 C         141.7132  141.7824  163.1612 C.ar    1  UNL1        0.0507
      3 C         141.0139  142.8164  163.9930 C.ar    1  UNL1        0.1347
      4 N         141.1735  142.8127  165.4844 N.ar    1  UNL1       -0.2122
      5 C         142.0325  141.7749  166.1442 C.ar    1  UNL1        0.1600
      6 N         142.7318  140.7409  165.3125 N.ar    1  UNL1       -0.2295
      7 C         142.1921  141.7712  167.6357 C.2     1  UNL1        0.0230
      8 C         143.4435  142.3166  168.2574 C.2     1  UNL1       -0.0005
      9 C         143.6032  142.3130  169.7488 C.2     1  UNL1        0.0010
     10 C         142.5114  141.7638  170.6187 C.2     1  UNL1        0.0153
     11 C         141.2600  141.2184  169.9970 C.2     1  UNL1        0.0669
     12 N         140.0228  140.6163  170.5941 N.2     1  UNL1       -0.2478
     13 C         139.0984  140.2479  169.4717 C.2     1  UNL1        0.0946
     14 C         139.7644  140.6223  168.1808 C.2     1  UNL1        0.0046
     15 C         141.1004  141.2221  168.5055 C.3     1  UNL1        0.0888
     16 C         143.2714  139.7106  162.9893 C.3     1  UNL1        0.1503
     17 C         141.8519  139.2498  162.8384 C.3     1  UNL1        0.0598
     18 C         141.5404  138.0398  162.0085 C.3     1  UNL1        0.1443
     19 O         142.6483  137.2905  161.3295 O.3     1  UNL1       -0.3536
     20 C         144.0677  137.7513  161.4805 C.3     1  UNL1        0.1443
     21 C         144.3793  138.9613  162.3103 C.3     1  UNL1        0.0598
     22 C         145.6247  141.3503  163.8687 C.3     1  UNL1        0.1764
     23 S         144.4480  140.5304  163.4290 S.O2    1  UNL1       -0.0063
     24 O         144.3713  141.5392  162.7561 O.2     1  UNL1       -0.1727
     25 O         144.8391  139.4514  164.3948 O.2     1  UNL1       -0.1727
     26 N         140.1550  143.8542  163.3332 N.pl3   1  UNL1       -0.2880
     27 C         140.7905  145.0013  162.6051 C.3     1  UNL1        0.1242
     28 C         139.9315  146.0390  161.9453 C.3     1  UNL1        0.1636
     29 O         138.4370  145.9296  162.0137 O.3     1  UNL1       -0.3501
     30 C         137.8016  144.7825  162.7418 C.3     1  UNL1        0.1636
     31 C         138.6605  143.7448  163.4016 C.3     1  UNL1        0.1242
@<TRIPOS>BOND
     1    22    23    1
     2    23    24    2
     3    23    25    2
     4    23    16    1
     5    16     1    1
     6     1     2   ar
     7     2     3   ar
     8     3    26    1
     9    26    27    1
    10    27    28    1
    11    28    29    1
    12    29    30    1
    13    30    31    1
    14     3     4   ar
    15     4     5   ar
    16     5     7    1
    17     7     8    2
    18     8     9    1
    19     9    10    2
    20    10    11    1
    21    11    12    2
    22    12    13    1
    23    13    14    2
    24    14    15    1
    25     5     6   ar
    26    16    17    1
    27    17    18    1
    28    18    19    1
    29    19    20    1
    30    20    21    1
    31    21    16    1
    32     6     1   ar
    33    31    26    1
    34    15     7    1
    35    15    11    1
@<TRIPOS>MOLECULE
*****
 31 35 0 0 0
SMALL
GASTEIGER

@<TRIPOS>ATOM
      1 C         141.3742  143.1523  163.5517 C.ar    1  UNL1        0.0833
      2 C         141.7410  141.9906  162.6766 C.ar    1  UNL1        0.0507
      3 C         142.2181  140.7088  163.2928 C.ar    1  UNL1        0.1347
      4 N         142.3284  140.5889  164.7838 N.ar    1  UNL1       -0.2122
      5 C         141.9616  141.7508  165.6589 C.ar    1  UNL1        0.1600
      6 N         141.4845  143.0325  165.0429 N.ar    1  UNL1       -0.2295
      7 C         142.0719  141.6308  167.1501 C.2     1  UNL1        0.0230
      8 C         143.2655  142.1957  167.8616 C.2     1  UNL1       -0.0005
      9 C         143.3758  142.0758  169.3527 C.2     1  UNL1        0.0010
     10 C         142.2926  141.3910  170.1323 C.2     1  UNL1        0.0153
     11 C         141.0991  140.8261  169.4207 C.2     1  UNL1        0.0669
     12 N         139.8830  140.1029  169.9189 N.2     1  UNL1       -0.2478
     13 C         139.0211  139.7758  168.7356 C.2     1  UNL1        0.0946
     14 C         139.7045  140.2969  167.5062 C.2     1  UNL1        0.0046
     15 C         140.9887  140.9460  167.9296 C.3     1  UNL1        0.0888
     16 C         140.8971  144.4340  162.9356 C.3     1  UNL1        0.1503
     17 C         139.5861  143.7279  163.1160 C.3     1  UNL1        0.0598
     18 C         138.3108  144.3942  162.6919 C.3     1  UNL1        0.1443
     19 O         138.3466  145.7665  162.0875 O.3     1  UNL1       -0.3536
     20 C         139.6576  146.4726  161.9072 C.3     1  UNL1        0.1443
     21 C         140.9329  145.8064  162.3312 C.3     1  UNL1        0.0598
     22 C         143.8505  144.9561  163.0028 C.3     1  UNL1        0.1764
     23 S         142.3738  144.6951  162.9692 S.O2    1  UNL1       -0.0063
     24 O         142.5978  144.9678  164.1319 O.2     1  UNL1       -0.1727
     25 O         142.4572  144.4133  161.4983 O.2     1  UNL1       -0.1727
     26 N         142.5849  139.5470  162.4178 N.pl3   1  UNL1       -0.2880
     27 C         141.5394  138.8902  161.5659 C.3     1  UNL1        0.1242
     28 C         141.9062  137.7285  160.6909 C.3     1  UNL1        0.1636
     29 O         143.3185  137.2235  160.6677 O.3     1  UNL1       -0.3501
     30 C         144.3639  137.8803  161.5195 C.3     1  UNL1        0.1636
     31 C         143.9971  139.0420  162.3946 C.3     1  UNL1        0.1242
@<TRIPOS>BOND
     1    22    23    1
     2    23    24    2
     3    23    25    2
     4    23    16    1
     5    16     1    1
     6     1     2   ar
     7     2     3   ar
     8     3    26    1
     9    26    27    1
    10    27    28    1
    11    28    29    1
    12    29    30    1
    13    30    31    1
    14     3     4   ar
    15     4     5   ar
    16     5     7    1
    17     7     8    2
    18     8     9    1
    19     9    10    2
    20    10    11    1
    21    11    12    2
    22    12    13    1
    23    13    14    2
    24    14    15    1
    25     5     6   ar
    26    16    17    1
    27    17    18    1
    28    18    19    1
    29    19    20    1
    30    20    21    1
    31    21    16    1
    32     6     1   ar
    33    31    26    1
    34    15     7    1
    35    15    11    1
@<TRIPOS>MOLECULE
*****
 31 35 0 0 0
SMALL
GASTEIGER

@<TRIPOS>ATOM
      1 C         140.0298  139.9858  164.0412 C.ar    1  UNL1        0.0833
      2 C         140.9760  140.9671  163.4153 C.ar    1  UNL1        0.0507
      3 C         141.7749  141.8955  164.2813 C.ar    1  UNL1        0.1347
      4 N         141.6275  141.8427  165.7730 N.ar    1  UNL1       -0.2122
      5 C         140.6812  140.8615  166.3990 C.ar    1  UNL1        0.1600
      6 N         139.8823  139.9330  165.5331 N.ar    1  UNL1       -0.2295
      7 C         140.5339  140.8087  167.8908 C.2     1  UNL1        0.0230
      8 C         139.3089  140.1958  168.5022 C.2     1  UNL1       -0.0005
      9 C         139.1615  140.1430  169.9939 C.2     1  UNL1        0.0010
     10 C         140.2391  140.7032  170.8744 C.2     1  UNL1        0.0153
     11 C         141.4641  141.3160  170.2630 C.2     1  UNL1        0.0669
     12 N         142.6828  141.9438  170.8717 N.2     1  UNL1       -0.2478
     13 C         143.5834  142.3846  169.7561 C.2     1  UNL1        0.0946
     14 C         142.9213  142.0292  168.4579 C.2     1  UNL1        0.0046
     15 C         141.6114  141.3688  168.7712 C.3     1  UNL1        0.0888
     16 C         139.2309  139.0574  163.1754 C.3     1  UNL1        0.1503
     17 C         138.6206  140.3700  162.7822 C.3     1  UNL1        0.0598
     18 C         137.5198  140.4102  161.7641 C.3     1  UNL1        0.1443
     19 O         137.0292  139.1380  161.1392 O.3     1  UNL1       -0.3536
     20 C         137.6395  137.8254  161.5324 C.3     1  UNL1        0.1443
     21 C         138.7403  137.7850  162.5505 C.3     1  UNL1        0.0598
     22 C         141.0064  137.0770  164.5631 C.3     1  UNL1        0.1764
     23 S         140.1186  138.0672  163.8692 S.O2    1  UNL1       -0.0063
     24 O         141.1975  138.2106  163.3291 O.2     1  UNL1       -0.1727
     25 O         138.9673  137.6378  164.7295 O.2     1  UNL1       -0.1727
     26 N         142.7212  142.8767  163.6554 N.pl3   1  UNL1       -0.2880
     27 C         142.7796  144.2884  164.1592 C.3     1  UNL1        0.1242
     28 C         143.7258  145.2696  163.5333 C.3     1  UNL1        0.1636
     29 O         144.6137  144.8391  162.4034 O.3     1  UNL1       -0.3501
     30 C         144.5552  143.4275  161.8996 C.3     1  UNL1        0.1636
     31 C         143.6090  142.4463  162.5255 C.3     1  UNL1        0.1242
@<TRIPOS>BOND
     1    22    23    1
     2    23    24    2
     3    23    25    2
     4    23    16    1
     5    16     1    1
     6     1     2   ar
     7     2     3   ar
     8     3    26    1
     9    26    27    1
    10    27    28    1
    11    28    29    1
    12    29    30    1
    13    30    31    1
    14     3     4   ar
    15     4     5   ar
    16     5     7    1
    17     7     8    2
    18     8     9    1
    19     9    10    2
    20    10    11    1
    21    11    12    2
    22    12    13    1
    23    13    14    2
    24    14    15    1
    25     5     6   ar
    26    16    17    1
    27    17    18    1
    28    18    19    1
    29    19    20    1
    30    20    21    1
    31    21    16    1
    32     6     1   ar
    33    31    26    1
    34    15     7    1
    35    15    11    1
@<TRIPOS>MOLECULE
*****
 31 35 0 0 0
SMALL
GASTEIGER

@<TRIPOS>ATOM
      1 C         140.9631  142.8615  163.3551 C.ar    1  UNL1        0.0833
      2 C         141.4930  141.7884  162.4508 C.ar    1  UNL1        0.0507
      3 C         141.7846  140.4226  162.9985 C.ar    1  UNL1        0.1347
      4 N         141.5463  140.1301  164.4502 N.ar    1  UNL1       -0.2122
      5 C         141.0163  141.2033  165.3544 C.ar    1  UNL1        0.1600
      6 N         140.7247  142.5690  164.8069 N.ar    1  UNL1       -0.2295
      7 C         140.7780  140.9107  166.8062 C.2     1  UNL1        0.0230
      8 C         139.5589  140.1445  167.2266 C.2     1  UNL1       -0.0005
      9 C         139.3206  139.8520  168.6782 C.2     1  UNL1        0.0010
     10 C         140.3014  140.3255  169.7097 C.2     1  UNL1        0.0153
     11 C         141.5205  141.0916  169.2893 C.2     1  UNL1        0.0669
     12 N         142.6548  141.6819  170.0735 N.2     1  UNL1       -0.2478
     13 C         143.5942  142.3393  169.1063 C.2     1  UNL1        0.0946
     14 C         143.0404  142.1554  167.7245 C.2     1  UNL1        0.0046
     15 C         141.7588  141.3842  167.8376 C.3     1  UNL1        0.0888
     16 C         140.6714  144.2272  162.8075 C.3     1  UNL1        0.1503
     17 C         139.2745  143.6988  162.9470 C.3     1  UNL1        0.0598
     18 C         138.1064  144.5549  162.5565 C.3     1  UNL1        0.1443
     19 O         138.3351  145.9393  162.0265 O.3     1  UNL1       -0.3536
     20 C         139.7319  146.4677  161.8871 C.3     1  UNL1        0.1443
     21 C         140.9002  145.6117  162.2775 C.3     1  UNL1        0.0598
     22 C         143.6678  144.3355  162.9088 C.3     1  UNL1        0.1764
     23 S         142.1696  144.2813  162.8582 S.O2    1  UNL1       -0.0063
     24 O         142.5133  143.9633  161.7370 O.2     1  UNL1       -0.1727
     25 O         142.1059  144.6995  164.2973 O.2     1  UNL1       -0.1727
     26 N         142.3145  139.3495  162.0943 N.pl3   1  UNL1       -0.2880
     27 C         141.5200  138.9170  160.8977 C.3     1  UNL1        0.1242
     28 C         142.0500  137.8439  159.9935 C.3     1  UNL1        0.1636
     29 O         143.3745  137.2033  160.2859 O.3     1  UNL1       -0.3501
     30 C         144.1689  137.6358  161.4824 C.3     1  UNL1        0.1636
     31 C         143.6390  138.7089  162.3866 C.3     1  UNL1        0.1242
@<TRIPOS>BOND
     1    22    23    1
     2    23    24    2
     3    23    25    2
     4    23    16    1
     5    16     1    1
     6     1     2   ar
     7     2     3   ar
     8     3    26    1
     9    26    27    1
    10    27    28    1
    11    28    29    1
    12    29    30    1
    13    30    31    1
    14     3     4   ar
    15     4     5   ar
    16     5     7    1
    17     7     8    2
    18     8     9    1
    19     9    10    2
    20    10    11    1
    21    11    12    2
    22    12    13    1
    23    13    14    2
    24    14    15    1
    25     5     6   ar
    26    16    17    1
    27    17    18    1
    28    18    19    1
    29    19    20    1
    30    20    21    1
    31    21    16    1
    32     6     1   ar
    33    31    26    1
    34    15     7    1
    35    15    11    1
@<TRIPOS>MOLECULE
*****
 31 35 0 0 0
SMALL
GASTEIGER

@<TRIPOS>ATOM
      1 C         139.9609  140.3791  165.6689 C.ar    1  UNL1        0.0833
      2 C         140.6348  140.7976  166.9419 C.ar    1  UNL1        0.0507
      3 C         141.2457  142.1631  167.0533 C.ar    1  UNL1        0.1347
      4 N         141.1828  143.1099  165.8917 N.ar    1  UNL1       -0.2122
      5 C         140.5089  142.6913  164.6186 C.ar    1  UNL1        0.1600
      6 N         139.8979  141.3260  164.5071 N.ar    1  UNL1       -0.2295
      7 C         140.4460  143.6382  163.4569 C.2     1  UNL1        0.0230
      8 C         139.3590  144.6696  163.3880 C.2     1  UNL1       -0.0005
      9 C         139.2961  145.6165  162.2265 C.2     1  UNL1        0.0010
     10 C         140.3202  145.5320  161.1336 C.2     1  UNL1        0.0153
     11 C         141.4071  144.5007  161.2025 C.2     1  UNL1        0.0669
     12 N         142.5468  144.1806  160.2813 N.2     1  UNL1       -0.2478
     13 C         143.3141  143.0359  160.8736 C.2     1  UNL1        0.0946
     14 C         142.6486  142.6485  162.1609 C.2     1  UNL1        0.0046
     15 C         141.4701  143.5538  162.3641 C.3     1  UNL1        0.0888
     16 C         139.3499  139.0137  165.5575 C.3     1  UNL1        0.1503
     17 C         138.5557  139.5615  166.7060 C.3     1  UNL1        0.0598
     18 C         137.5000  138.7183  167.3576 C.3     1  UNL1        0.1443
     19 O         137.2386  137.3275  166.8608 O.3     1  UNL1       -0.3536
     20 C         138.0328  136.7797  165.7123 C.3     1  UNL1        0.1443
     21 C         139.0884  137.6228  165.0606 C.3     1  UNL1        0.0598
     22 C         141.3627  138.8664  163.3378 C.3     1  UNL1        0.1764
     23 S         140.3562  138.9401  164.4477 S.O2    1  UNL1       -0.0063
     24 O         141.4189  138.8109  165.0225 O.2     1  UNL1       -0.1727
     25 O         139.2553  139.0860  163.4394 O.2     1  UNL1       -0.1727
     26 N         141.9196  142.5815  168.3264 N.pl3   1  UNL1       -0.2880
     27 C         143.3701  142.2680  168.5454 C.3     1  UNL1        0.1242
     28 C         144.0439  142.6865  169.8185 C.3     1  UNL1        0.1636
     29 O         143.2673  143.4185  170.8725 O.3     1  UNL1       -0.3501
     30 C         141.8170  143.7320  170.6535 C.3     1  UNL1        0.1636
     31 C         141.1431  143.3136  169.3805 C.3     1  UNL1        0.1242
@<TRIPOS>BOND
     1    22    23    1
     2    23    24    2
     3    23    25    2
     4    23    16    1
     5    16     1    1
     6     1     2   ar
     7     2     3   ar
     8     3    26    1
     9    26    27    1
    10    27    28    1
    11    28    29    1
    12    29    30    1
    13    30    31    1
    14     3     4   ar
    15     4     5   ar
    16     5     7    1
    17     7     8    2
    18     8     9    1
    19     9    10    2
    20    10    11    1
    21    11    12    2
    22    12    13    1
    23    13    14    2
    24    14    15    1
    25     5     6   ar
    26    16    17    1
    27    17    18    1
    28    18    19    1
    29    19    20    1
    30    20    21    1
    31    21    16    1
    32     6     1   ar
    33    31    26    1
    34    15     7    1
    35    15    11    1
@<TRIPOS>MOLECULE
*****
 31 35 0 0 0
SMALL
GASTEIGER

@<TRIPOS>ATOM
      1 C         141.6138  142.6142  162.4209 C.ar    1  UNL1        0.0833
      2 C         141.9118  141.8715  161.1522 C.ar    1  UNL1        0.0507
      3 C         142.4659  140.4788  161.2109 C.ar    1  UNL1        0.1347
      4 N         142.7221  139.8289  162.5382 N.ar    1  UNL1       -0.2122
      5 C         142.4241  140.5716  163.8070 C.ar    1  UNL1        0.1600
      6 N         141.8700  141.9643  163.7483 N.ar    1  UNL1       -0.2295
      7 C         142.6803  139.9216  165.1344 C.2     1  UNL1        0.0230
      8 C         143.5461  138.6995  165.2164 C.2     1  UNL1       -0.0005
      9 C         143.8023  138.0495  166.5436 C.2     1  UNL1        0.0010
     10 C         143.1926  138.6216  167.7891 C.2     1  UNL1        0.0153
     11 C         142.3268  139.8438  167.7071 C.2     1  UNL1        0.0669
     12 N         141.5958  140.6281  168.7561 N.2     1  UNL1       -0.2478
     13 C         140.8878  141.7628  168.0771 C.2     1  UNL1        0.0946
     14 C         141.1812  141.6798  166.6084 C.2     1  UNL1        0.0046
     15 C         142.0706  140.4937  166.3797 C.3     1  UNL1        0.0888
     16 C         141.0597  144.0068  162.3622 C.3     1  UNL1        0.1503
     17 C         139.7950  143.2164  162.2022 C.3     1  UNL1        0.0598
     18 C         138.4822  143.9252  162.0462 C.3     1  UNL1        0.1443
     19 O         138.4342  145.4243  162.0502 O.3     1  UNL1       -0.3536
     20 C         139.6989  146.2148  162.2102 C.3     1  UNL1        0.1443
     21 C         141.0117  145.5061  162.3662 C.3     1  UNL1        0.0598
     22 C         143.9740  144.6206  162.7229 C.3     1  UNL1        0.1764
     23 S         142.5168  144.3137  162.5426 S.O2    1  UNL1       -0.0063
     24 O         142.9865  144.1742  161.4307 O.2     1  UNL1       -0.1727
     25 O         142.2828  144.5677  164.0023 O.2     1  UNL1       -0.1727
     26 N         142.7639  139.7361  159.9422 N.pl3   1  UNL1       -0.2880
     27 C         142.4539  138.2721  159.8397 C.3     1  UNL1        0.1242
     28 C         142.7519  137.5294  158.5710 C.3     1  UNL1        0.1636
     29 O         143.3598  138.2509  157.4047 O.3     1  UNL1       -0.3501
     30 C         143.6698  139.7149  157.5073 C.3     1  UNL1        0.1636
     31 C         143.3718  140.4575  158.7760 C.3     1  UNL1        0.1242
@<TRIPOS>BOND
     1    22    23    1
     2    23    24    2
     3    23    25    2
     4    23    16    1
     5    16     1    1
     6     1     2   ar
     7     2     3   ar
     8     3    26    1
     9    26    27    1
    10    27    28    1
    11    28    29    1
    12    29    30    1
    13    30    31    1
    14     3     4   ar
    15     4     5   ar
    16     5     7    1
    17     7     8    2
    18     8     9    1
    19     9    10    2
    20    10    11    1
    21    11    12    2
    22    12    13    1
    23    13    14    2
    24    14    15    1
    25     5     6   ar
    26    16    17    1
    27    17    18    1
    28    18    19    1
    29    19    20    1
    30    20    21    1
    31    21    16    1
    32     6     1   ar
    33    31    26    1
    34    15     7    1
    35    15    11    1
@<TRIPOS>MOLECULE
*****
 31 35 0 0 0
SMALL
GASTEIGER

@<TRIPOS>ATOM
      1 C         140.2090  142.5330  163.7359 C.ar    1  UNL1        0.0833
      2 C         140.9429  141.5446  162.8790 C.ar    1  UNL1        0.0507
      3 C         141.5589  140.3258  163.4996 C.ar    1  UNL1        0.1347
      4 N         141.4410  140.0955  164.9771 N.ar    1  UNL1       -0.2122
      5 C         140.7070  141.0840  165.8341 C.ar    1  UNL1        0.1600
      6 N         140.0910  142.3028  165.2135 N.ar    1  UNL1       -0.2295
      7 C         140.5891  140.8536  167.3116 C.2     1  UNL1        0.0230
      8 C         139.4004  140.1249  167.8645 C.2     1  UNL1       -0.0005
      9 C         139.2825  139.8945  169.3419 C.2     1  UNL1        0.0010
     10 C         140.3534  140.3929  170.2666 C.2     1  UNL1        0.0153
     11 C         141.5421  141.1217  169.7137 C.2     1  UNL1        0.0669
     12 N         142.7464  141.7243  170.3743 N.2     1  UNL1       -0.2478
     13 C         143.6086  142.3270  169.3051 C.2     1  UNL1        0.0946
     14 C         142.9372  142.0970  167.9836 C.2     1  UNL1        0.0046
     15 C         141.6600  141.3520  168.2361 C.3     1  UNL1        0.0888
     16 C         139.5930  143.7518  163.1154 C.3     1  UNL1        0.1503
     17 C         141.0082  144.2247  163.2688 C.3     1  UNL1        0.0598
     18 C         141.3902  145.6051  162.8232 C.3     1  UNL1        0.1443
     19 O         140.3571  146.5126  162.2242 O.3     1  UNL1       -0.3536
     20 C         138.9418  146.0398  162.0708 C.3     1  UNL1        0.1443
     21 C         138.5598  144.6594  162.5164 C.3     1  UNL1        0.0598
     22 C         137.1904  141.9597  163.2396 C.3     1  UNL1        0.1764
     23 S         138.3917  142.8558  163.1775 S.O2    1  UNL1       -0.0063
     24 O         138.5440  142.0947  162.2426 O.2     1  UNL1       -0.1727
     25 O         137.8983  143.6006  164.3824 O.2     1  UNL1       -0.1727
     26 N         142.2928  139.3373  162.6427 N.pl3   1  UNL1       -0.2880
     27 C         143.7494  139.0720  162.8833 C.3     1  UNL1        0.1242
     28 C         144.4832  138.0836  162.0263 C.3     1  UNL1        0.1636
     29 O         143.7604  137.3605  160.9287 O.3     1  UNL1       -0.3501
     30 C         142.3039  137.6258  160.6881 C.3     1  UNL1        0.1636
     31 C         141.5700  138.6142  161.5451 C.3     1  UNL1        0.1242
@<TRIPOS>BOND
     1    22    23    1
     2    23    24    2
     3    23    25    2
     4    23    16    1
     5    16     1    1
     6     1     2   ar
     7     2     3   ar
     8     3    26    1
     9    26    27    1
    10    27    28    1
    11    28    29    1
    12    29    30    1
    13    30    31    1
    14     3     4   ar
    15     4     5   ar
    16     5     7    1
    17     7     8    2
    18     8     9    1
    19     9    10    2
    20    10    11    1
    21    11    12    2
    22    12    13    1
    23    13    14    2
    24    14    15    1
    25     5     6   ar
    26    16    17    1
    27    17    18    1
    28    18    19    1
    29    19    20    1
    30    20    21    1
    31    21    16    1
    32     6     1   ar
    33    31    26    1
    34    15     7    1
    35    15    11    1
@<TRIPOS>MOLECULE
*****
 31 35 0 0 0
SMALL
GASTEIGER

@<TRIPOS>ATOM
      1 C         141.7514  139.3452  162.1515 C.ar    1  UNL1        0.0833
      2 C         141.7433  138.4519  160.9466 C.ar    1  UNL1        0.0507
      3 C         141.4489  139.0234  159.5913 C.ar    1  UNL1        0.1347
      4 N         141.1626  140.4880  159.4410 N.ar    1  UNL1       -0.2122
      5 C         141.1707  141.3814  160.6460 C.ar    1  UNL1        0.1600
      6 N         141.4651  140.8100  162.0013 N.ar    1  UNL1       -0.2295
      7 C         140.8844  142.8461  160.4957 C.2     1  UNL1        0.0230
      8 C         141.6292  143.6551  159.4754 C.2     1  UNL1       -0.0005
      9 C         141.3430  145.1197  159.3251 C.2     1  UNL1        0.0010
     10 C         140.3118  145.7756  160.1950 C.2     1  UNL1        0.0153
     11 C         139.5671  144.9667  161.2152 C.2     1  UNL1        0.0669
     12 N         138.5035  145.3353  162.2066 N.2     1  UNL1       -0.2478
     13 C         138.1324  144.0984  162.9697 C.2     1  UNL1        0.0946
     14 C         138.9667  142.9653  162.4499 C.2     1  UNL1        0.0046
     15 C         139.8533  143.5020  161.3656 C.3     1  UNL1        0.0888
     16 C         142.0459  138.7738  163.5068 C.3     1  UNL1        0.1503
     17 C         143.3599  139.4342  163.2116 C.3     1  UNL1        0.0598
     18 C         144.4764  139.3628  164.2107 C.3     1  UNL1        0.1443
     19 O         144.2790  138.6310  165.5050 O.3     1  UNL1       -0.3536
     20 C         142.9650  137.9705  165.8002 C.3     1  UNL1        0.1443
     21 C         141.8484  138.0419  164.8012 C.3     1  UNL1        0.0598
     22 C         139.2133  137.8498  163.1561 C.3     1  UNL1        0.1764
     23 S         140.6297  138.3118  163.3314 S.O2    1  UNL1       -0.0063
     24 O         139.9670  139.3078  163.5440 O.2     1  UNL1       -0.1727
     25 O         141.1194  136.9293  163.0172 O.2     1  UNL1       -0.1727
     26 N         141.4407  138.1301  158.3863 N.pl3   1  UNL1       -0.2880
     27 C         142.6658  137.3417  158.0289 C.3     1  UNL1        0.1242
     28 C         142.6576  136.4484  156.8239 C.3     1  UNL1        0.1636
     29 O         141.4244  136.3435  155.9765 O.3     1  UNL1       -0.3501
     30 C         140.1994  137.1318  156.3340 C.3     1  UNL1        0.1636
     31 C         140.2075  138.0251  157.5389 C.3     1  UNL1        0.1242
@<TRIPOS>BOND
     1    22    23    1
     2    23    24    2
     3    23    25    2
     4    23    16    1
     5    16     1    1
     6     1     2   ar
     7     2     3   ar
     8     3    26    1
     9    26    27    1
    10    27    28    1
    11    28    29    1
    12    29    30    1
    13    30    31    1
    14     3     4   ar
    15     4     5   ar
    16     5     7    1
    17     7     8    2
    18     8     9    1
    19     9    10    2
    20    10    11    1
    21    11    12    2
    22    12    13    1
    23    13    14    2
    24    14    15    1
    25     5     6   ar
    26    16    17    1
    27    17    18    1
    28    18    19    1
    29    19    20    1
    30    20    21    1
    31    21    16    1
    32     6     1   ar
    33    31    26    1
    34    15     7    1
    35    15    11    1
@<TRIPOS>MOLECULE
*****
 31 35 0 0 0
SMALL
GASTEIGER

@<TRIPOS>ATOM
      1 C         143.5388  142.1210  162.0441 C.ar    1  UNL1        0.0833
      2 C         144.4224  142.1164  160.8320 C.ar    1  UNL1        0.0507
      3 C         143.8973  141.6056  159.5231 C.ar    1  UNL1        0.1347
      4 N         142.4887  141.0994  159.4263 N.ar    1  UNL1       -0.2122
      5 C         141.6050  141.1040  160.6385 C.ar    1  UNL1        0.1600
      6 N         142.1301  141.6148  161.9474 N.ar    1  UNL1       -0.2295
      7 C         140.1964  140.5977  160.5416 C.2     1  UNL1        0.0230
      8 C         139.2474  141.2055  159.5516 C.2     1  UNL1       -0.0005
      9 C         137.8388  140.6993  159.4547 C.2     1  UNL1        0.0010
     10 C         137.3790  139.5853  160.3479 C.2     1  UNL1        0.0153
     11 C         138.3280  138.9776  161.3379 C.2     1  UNL1        0.0669
     12 N         138.1612  137.8758  162.3421 N.2     1  UNL1       -0.2478
     13 C         139.4669  137.7011  163.0595 C.2     1  UNL1        0.0946
     14 C         140.4406  138.6949  162.4988 C.2     1  UNL1        0.0046
     15 C         139.7366  139.4838  161.4348 C.3     1  UNL1        0.0888
     16 C         144.0639  142.6318  163.3531 C.3     1  UNL1        0.1503
     17 C         143.4929  143.8991  162.7892 C.3     1  UNL1        0.0598
     18 C         143.5820  145.1754  163.5722 C.3     1  UNL1        0.1443
     19 O         144.2420  145.1845  164.9190 O.3     1  UNL1       -0.3536
     20 C         144.8130  143.9172  165.4830 C.3     1  UNL1        0.1443
     21 C         144.7240  142.6409  164.7000 C.3     1  UNL1        0.0598
     22 C         144.8412  139.7425  163.5719 C.3     1  UNL1        0.1764
     23 S         144.4526  141.1872  163.4625 S.O2    1  UNL1       -0.0063
     24 O         143.4297  140.6334  163.8136 O.2     1  UNL1       -0.1727
     25 O         145.8509  141.5315  163.0431 O.2     1  UNL1       -0.1727
     26 N         144.7809  141.6010  158.3110 N.pl3   1  UNL1       -0.2880
     27 C         145.8827  142.6106  158.1822 C.3     1  UNL1        0.1242
     28 C         146.7663  142.6060  156.9701 C.3     1  UNL1        0.1636
     29 O         146.5480  141.5918  155.8867 O.3     1  UNL1       -0.3501
     30 C         145.4462  140.5822  156.0155 C.3     1  UNL1        0.1636
     31 C         144.5626  140.5868  157.2276 C.3     1  UNL1        0.1242
@<TRIPOS>BOND
     1    22    23    1
     2    23    24    2
     3    23    25    2
     4    23    16    1
     5    16     1    1
     6     1     2   ar
     7     2     3   ar
     8     3    26    1
     9    26    27    1
    10    27    28    1
    11    28    29    1
    12    29    30    1
    13    30    31    1
    14     3     4   ar
    15     4     5   ar
    16     5     7    1
    17     7     8    2
    18     8     9    1
    19     9    10    2
    20    10    11    1
    21    11    12    2
    22    12    13    1
    23    13    14    2
    24    14    15    1
    25     5     6   ar
    26    16    17    1
    27    17    18    1
    28    18    19    1
    29    19    20    1
    30    20    21    1
    31    21    16    1
    32     6     1   ar
    33    31    26    1
    34    15     7    1
    35    15    11    1
