@<TRIPOS>MOLECULE
*****
 28 31 0 0 0
SMALL
GASTEIGER

@<TRIPOS>ATOM
      1 C         139.3397  139.5011  166.6168 C.ar    1  UNL1        0.0206
      2 C         138.5638  138.2777  166.2275 C.ar    1  UNL1        0.0013
      3 C         138.5660  137.8102  164.8022 C.ar    1  UNL1       -0.0045
      4 C         139.3440  138.5661  163.7661 C.ar    1  UNL1       -0.0247
      5 C         140.1198  139.7894  164.1554 C.ar    1  UNL1       -0.0246
      6 C         140.1176  140.2569  165.5807 C.ar    1  UNL1       -0.0029
      7 C         140.9557  140.6824  163.2871 C.3     1  UNL1        0.0433
      8 C         141.2222  140.5724  161.8149 C.3     1  UNL1        0.0768
      9 N         140.7186  139.5425  160.8478 N.3     1  UNL1       -0.2720
     10 C         139.8242  138.3681  161.1136 C.3     1  UNL1        0.0768
     11 C         139.2124  137.9335  162.4124 C.3     1  UNL1        0.0433
     12 C         140.6390  141.9947  171.0860 C.3     1  UNL1        0.0754
     13 C         139.9347  141.1147  170.0964 C.ar    1  UNL1        0.1548
     14 C         140.3081  140.9340  168.6548 C.ar    1  UNL1        0.0580
     15 C         139.3375  139.9685  168.0420 C.ar    1  UNL1        0.1227
     16 N         138.3641  139.5524  169.1048 N.ar    1  UNL1       -0.0774
     17 O         138.7332  140.2608  170.3744 O.2     1  UNL1       -0.3578
     18 C         141.1690  139.7090  159.4267 C.3     1  UNL1        0.0730
     19 C         140.6802  140.8728  158.6164 C.3     1  UNL1        0.0294
     20 C         139.2405  141.2874  158.6917 C.3     1  UNL1        0.0666
     21 S         138.8480  142.4921  159.4944 S.3     1  UNL1       -0.0756
     22 C         138.3237  142.3253  160.8899 C.ar    1  UNL1        0.1930
     23 N         137.4683  141.1952  161.3811 N.ar    1  UNL1       -0.1224
     24 N         137.1787  141.4307  162.8339 N.ar    1  UNL1       -0.1328
     25 C         137.8551  142.7063  163.2406 C.ar    1  UNL1        0.1441
     26 C         137.8285  143.3211  164.6085 C.3     1  UNL1        0.0739
     27 N         138.5628  143.2592  162.0391 N.ar    1  UNL1       -0.2918
     28 C         139.3681  144.5239  161.9947 C.3     1  UNL1        0.1337
@<TRIPOS>BOND
     1    12    13    1
     2    13    14   ar
     3    14    15   ar
     4    15     1    1
     5     1     2   ar
     6     2     3   ar
     7     3     4   ar
     8     4     5   ar
     9     5     6   ar
    10     5     7    1
    11     7     8    1
    12     8     9    1
    13     9    18    1
    14    18    19    1
    15    19    20    1
    16    20    21    1
    17    21    22    1
    18    22    23   ar
    19    23    24   ar
    20    24    25   ar
    21    25    26    1
    22    25    27   ar
    23    27    28    1
    24     9    10    1
    25    10    11    1
    26    15    16   ar
    27    16    17   ar
    28    17    13   ar
    29     6     1   ar
    30    27    22   ar
    31    11     4    1
@<TRIPOS>MOLECULE
*****
 28 31 0 0 0
SMALL
GASTEIGER

@<TRIPOS>ATOM
      1 C         139.8919  140.1109  166.5238 C.ar    1  UNL1        0.0206
      2 C         138.4990  139.7123  166.1352 C.ar    1  UNL1        0.0013
      3 C         138.0348  139.8913  164.7201 C.ar    1  UNL1       -0.0045
      4 C         138.9635  140.4691  163.6936 C.ar    1  UNL1       -0.0247
      5 C         140.3563  140.8676  164.0821 C.ar    1  UNL1       -0.0246
      6 C         140.8206  140.6886  165.4972 C.ar    1  UNL1       -0.0029
      7 C         141.4345  141.4578  163.2223 C.3     1  UNL1        0.0433
      8 C         141.3860  141.7950  161.7614 C.3     1  UNL1        0.0768
      9 N         140.2475  141.6254  160.7998 N.3     1  UNL1       -0.2720
     10 C         138.8761  141.0767  161.0613 C.3     1  UNL1        0.0768
     11 C         138.3047  140.5621  162.3492 C.3     1  UNL1        0.0433
     12 C         142.9963  139.6239  170.7670 C.3     1  UNL1        0.0754
     13 C         141.7829  139.7079  169.8893 C.ar    1  UNL1        0.1548
     14 C         141.7822  139.9102  168.4029 C.ar    1  UNL1        0.0580
     15 C         140.3560  139.9318  167.9389 C.ar    1  UNL1        0.1227
     16 N         139.4753  139.7429  169.1383 N.ar    1  UNL1       -0.0774
     17 O         140.3572  139.6045  170.3437 O.2     1  UNL1       -0.3578
     18 C         140.5157  142.0624  159.3901 C.3     1  UNL1        0.0730
     19 C         141.0339  143.4436  159.1187 C.3     1  UNL1        0.0294
     20 C         140.1749  144.6380  159.4114 C.3     1  UNL1        0.0666
     21 S         140.3568  145.3969  160.6923 S.3     1  UNL1       -0.0756
     22 C         139.6711  144.9326  161.9430 C.ar    1  UNL1        0.1930
     23 N         138.2568  144.4431  162.0433 N.ar    1  UNL1       -0.1224
     24 N         137.9909  144.0842  163.4752 N.ar    1  UNL1       -0.1328
     25 C         139.2409  144.3519  164.2600 C.ar    1  UNL1        0.1441
     26 C         139.4209  144.1336  165.7330 C.3     1  UNL1        0.0739
     27 N         140.2794  144.8762  163.3130 N.ar    1  UNL1       -0.2918
     28 C         141.6801  145.2743  163.6728 C.3     1  UNL1        0.1337
@<TRIPOS>BOND
     1    12    13    1
     2    13    14   ar
     3    14    15   ar
     4    15     1    1
     5     1     2   ar
     6     2     3   ar
     7     3     4   ar
     8     4     5   ar
     9     5     6   ar
    10     5     7    1
    11     7     8    1
    12     8     9    1
    13     9    18    1
    14    18    19    1
    15    19    20    1
    16    20    21    1
    17    21    22    1
    18    22    23   ar
    19    23    24   ar
    20    24    25   ar
    21    25    26    1
    22    25    27   ar
    23    27    28    1
    24     9    10    1
    25    10    11    1
    26    15    16   ar
    27    16    17   ar
    28    17    13   ar
    29     6     1   ar
    30    27    22   ar
    31    11     4    1
@<TRIPOS>MOLECULE
*****
 28 31 0 0 0
SMALL
GASTEIGER

@<TRIPOS>ATOM
      1 C         139.0337  139.5711  166.4070 C.ar    1  UNL1        0.0206
      2 C         138.8988  138.1528  165.9378 C.ar    1  UNL1        0.0013
      3 C         138.7345  137.8588  164.4761 C.ar    1  UNL1       -0.0045
      4 C         138.7050  138.9832  163.4836 C.ar    1  UNL1       -0.0247
      5 C         138.8399  140.4014  163.9528 C.ar    1  UNL1       -0.0246
      6 C         139.0042  140.6955  165.4145 C.ar    1  UNL1       -0.0029
      7 C         138.8365  141.6606  163.1376 C.3     1  UNL1        0.0433
      8 C         138.6974  141.8123  161.6517 C.3     1  UNL1        0.0768
      9 N         138.5274  140.7425  160.6143 N.3     1  UNL1       -0.2720
     10 C         138.4544  139.2566  160.8063 C.3     1  UNL1        0.0768
     11 C         138.5335  138.4736  162.0833 C.3     1  UNL1        0.0433
     12 C         140.9991  141.3051  170.9908 C.3     1  UNL1        0.0754
     13 C         140.1014  140.6621  169.9757 C.ar    1  UNL1        0.1548
     14 C         140.3473  140.5956  168.4974 C.ar    1  UNL1        0.0580
     15 C         139.1980  139.8651  167.8687 C.ar    1  UNL1        0.1227
     16 N         138.2417  139.4800  168.9584 N.ar    1  UNL1       -0.0774
     17 O         138.8001  139.9726  170.2605 O.2     1  UNL1       -0.3578
     18 C         138.4155  141.2219  159.1974 C.3     1  UNL1        0.0730
     19 C         138.6195  142.6733  158.8782 C.3     1  UNL1        0.0294
     20 C         139.9490  143.1506  158.3735 C.3     1  UNL1        0.0666
     21 S         140.4117  144.5438  158.6810 S.3     1  UNL1       -0.0756
     22 C         140.4392  145.0289  160.1002 C.ar    1  UNL1        0.1930
     23 N         139.5146  146.0448  160.7027 N.ar    1  UNL1       -0.1224
     24 N         139.9000  146.2271  162.1409 N.ar    1  UNL1       -0.1328
     25 C         141.0628  145.3237  162.4271 C.ar    1  UNL1        0.1441
     26 C         141.7685  145.1852  163.7435 C.3     1  UNL1        0.0739
     27 N         141.3960  144.5832  161.1659 N.ar    1  UNL1       -0.2918
     28 C         142.4934  143.5742  160.9997 C.3     1  UNL1        0.1337
@<TRIPOS>BOND
     1    12    13    1
     2    13    14   ar
     3    14    15   ar
     4    15     1    1
     5     1     2   ar
     6     2     3   ar
     7     3     4   ar
     8     4     5   ar
     9     5     6   ar
    10     5     7    1
    11     7     8    1
    12     8     9    1
    13     9    18    1
    14    18    19    1
    15    19    20    1
    16    20    21    1
    17    21    22    1
    18    22    23   ar
    19    23    24   ar
    20    24    25   ar
    21    25    26    1
    22    25    27   ar
    23    27    28    1
    24     9    10    1
    25    10    11    1
    26    15    16   ar
    27    16    17   ar
    28    17    13   ar
    29     6     1   ar
    30    27    22   ar
    31    11     4    1
@<TRIPOS>MOLECULE
*****
 28 31 0 0 0
SMALL
GASTEIGER

@<TRIPOS>ATOM
      1 C         139.8500  140.7614  167.0017 C.ar    1  UNL1        0.0206
      2 C         138.7909  140.0413  166.2208 C.ar    1  UNL1        0.0013
      3 C         138.2580  140.6385  164.9521 C.ar    1  UNL1       -0.0045
      4 C         138.7843  141.9558  164.4644 C.ar    1  UNL1       -0.0247
      5 C         139.8434  142.6758  165.2453 C.ar    1  UNL1       -0.0246
      6 C         140.3763  142.0786  166.5139 C.ar    1  UNL1       -0.0029
      7 C         140.5008  143.9890  164.9394 C.3     1  UNL1        0.0433
      8 C         140.2614  144.9064  163.7770 C.3     1  UNL1        0.0768
      9 N         139.3056  144.7372  162.6336 N.3     1  UNL1       -0.2720
     10 C         138.3529  143.6089  162.3699 C.3     1  UNL1        0.0768
     11 C         138.1210  142.3710  163.1847 C.3     1  UNL1        0.0433
     12 C         143.0957  138.5783  170.5485 C.3     1  UNL1        0.0754
     13 C         141.8747  139.1606  169.9006 C.ar    1  UNL1        0.1548
     14 C         141.7834  139.6765  168.4950 C.ar    1  UNL1        0.0580
     15 C         140.3828  140.1641  168.2703 C.ar    1  UNL1        0.1227
     16 N         139.6084  139.9496  169.5370 N.ar    1  UNL1       -0.0774
     17 O         140.5305  139.3294  170.5445 O.2     1  UNL1       -0.3578
     18 C         139.3018  145.8425  161.6195 C.3     1  UNL1        0.0730
     19 C         140.2592  145.8049  160.4654 C.3     1  UNL1        0.0294
     20 C         140.4647  144.5298  159.7025 C.3     1  UNL1        0.0666
     21 S         141.8017  143.8504  159.7236 S.3     1  UNL1       -0.0756
     22 C         142.4210  143.4540  161.0310 C.ar    1  UNL1        0.1930
     23 N         143.4367  144.2447  161.8011 N.ar    1  UNL1       -0.1224
     24 N         143.7768  143.4768  163.0440 N.ar    1  UNL1       -0.1328
     25 C         142.9712  142.2114  163.0420 C.ar    1  UNL1        0.1441
     26 C         142.9987  141.1471  164.0985 C.3     1  UNL1        0.0739
     27 N         142.1333  142.1973  161.7979 N.ar    1  UNL1       -0.2918
     28 C         141.1757  141.1164  161.3920 C.3     1  UNL1        0.1337
@<TRIPOS>BOND
     1    12    13    1
     2    13    14   ar
     3    14    15   ar
     4    15     1    1
     5     1     2   ar
     6     2     3   ar
     7     3     4   ar
     8     4     5   ar
     9     5     6   ar
    10     5     7    1
    11     7     8    1
    12     8     9    1
    13     9    18    1
    14    18    19    1
    15    19    20    1
    16    20    21    1
    17    21    22    1
    18    22    23   ar
    19    23    24   ar
    20    24    25   ar
    21    25    26    1
    22    25    27   ar
    23    27    28    1
    24     9    10    1
    25    10    11    1
    26    15    16   ar
    27    16    17   ar
    28    17    13   ar
    29     6     1   ar
    30    27    22   ar
    31    11     4    1
@<TRIPOS>MOLECULE
*****
 28 31 0 0 0
SMALL
GASTEIGER

@<TRIPOS>ATOM
      1 C         139.7081  139.5775  166.8124 C.ar    1  UNL1        0.0206
      2 C         138.4424  139.2501  166.0770 C.ar    1  UNL1        0.0013
      3 C         138.5018  138.7842  164.6524 C.ar    1  UNL1       -0.0045
      4 C         139.8269  138.6457  163.9633 C.ar    1  UNL1       -0.0247
      5 C         141.0925  138.9731  164.6987 C.ar    1  UNL1       -0.0246
      6 C         141.0332  139.4390  166.1232 C.ar    1  UNL1       -0.0029
      7 C         142.5067  138.9044  164.2031 C.3     1  UNL1        0.0433
      8 C         143.0043  138.4913  162.8496 C.3     1  UNL1        0.0768
      9 N         142.2108  138.0449  161.6577 N.3     1  UNL1       -0.2720
     10 C         140.7236  137.9014  161.5245 C.3     1  UNL1        0.0768
     11 C         139.6627  138.1687  162.5506 C.3     1  UNL1        0.0433
     12 C         140.8502  142.0352  171.3440 C.3     1  UNL1        0.0754
     13 C         140.1736  141.1731  170.3200 C.ar    1  UNL1        0.1548
     14 C         140.6113  140.9851  168.8975 C.ar    1  UNL1        0.0580
     15 C         139.6486  140.0434  168.2370 C.ar    1  UNL1        0.1227
     16 N         138.6160  139.6493  169.2511 N.ar    1  UNL1       -0.0774
     17 O         138.9405  140.3475  170.5384 O.2     1  UNL1       -0.3578
     18 C         143.0101  137.6960  160.4373 C.3     1  UNL1        0.0730
     19 C         142.9098  138.5472  159.2062 C.3     1  UNL1        0.0294
     20 C         142.7793  140.0362  159.3324 C.3     1  UNL1        0.0666
     21 S         143.8757  140.8334  159.9744 S.3     1  UNL1       -0.0756
     22 C         143.5585  142.1305  160.6578 C.ar    1  UNL1        0.1930
     23 N         142.5906  143.1688  160.1730 N.ar    1  UNL1       -0.1224
     24 N         142.5874  144.2970  161.1615 N.ar    1  UNL1       -0.1328
     25 C         143.5532  143.9559  162.2573 C.ar    1  UNL1        0.1441
     26 C         143.8642  144.8047  163.4543 C.3     1  UNL1        0.0739
     27 N         144.1534  142.6168  161.9460 N.ar    1  UNL1       -0.2918
     28 C         145.1700  141.8916  162.7771 C.3     1  UNL1        0.1337
@<TRIPOS>BOND
     1    12    13    1
     2    13    14   ar
     3    14    15   ar
     4    15     1    1
     5     1     2   ar
     6     2     3   ar
     7     3     4   ar
     8     4     5   ar
     9     5     6   ar
    10     5     7    1
    11     7     8    1
    12     8     9    1
    13     9    18    1
    14    18    19    1
    15    19    20    1
    16    20    21    1
    17    21    22    1
    18    22    23   ar
    19    23    24   ar
    20    24    25   ar
    21    25    26    1
    22    25    27   ar
    23    27    28    1
    24     9    10    1
    25    10    11    1
    26    15    16   ar
    27    16    17   ar
    28    17    13   ar
    29     6     1   ar
    30    27    22   ar
    31    11     4    1
@<TRIPOS>MOLECULE
*****
 28 31 0 0 0
SMALL
GASTEIGER

@<TRIPOS>ATOM
      1 C         142.5465  140.2971  166.5248 C.ar    1  UNL1        0.0206
      2 C         142.8661  138.8847  166.1337 C.ar    1  UNL1        0.0013
      3 C         142.6991  138.4448  164.7093 C.ar    1  UNL1       -0.0045
      4 C         142.2126  139.4175  163.6762 C.ar    1  UNL1       -0.0247
      5 C         141.8930  140.8297  164.0673 C.ar    1  UNL1       -0.0246
      6 C         142.0600  141.2697  165.4916 C.ar    1  UNL1       -0.0029
      7 C         141.3988  141.9509  163.2019 C.3     1  UNL1        0.0433
      8 C         141.1020  141.9364  161.7316 C.3     1  UNL1        0.0768
      9 N         141.2262  140.7974  160.7637 N.3     1  UNL1       -0.2720
     10 C         141.6779  139.3913  161.0268 C.3     1  UNL1        0.0768
     11 C         142.1168  138.7772  162.3230 C.3     1  UNL1        0.0433
     12 C         143.0095  143.3288  170.8231 C.3     1  UNL1        0.0754
     13 C         142.9264  142.1304  169.9249 C.ar    1  UNL1        0.1548
     14 C         142.7402  142.1552  168.4366 C.ar    1  UNL1        0.0580
     15 C         142.7135  140.7369  167.9491 C.ar    1  UNL1        0.1227
     16 N         142.8832  139.8355  169.1360 N.ar    1  UNL1       -0.0774
     17 O         143.0147  140.6968  170.3570 O.2     1  UNL1       -0.3578
     18 C         140.8489  141.1049  159.3448 C.3     1  UNL1        0.0730
     19 C         139.4195  140.9851  158.9060 C.3     1  UNL1        0.0294
     20 C         138.6131  139.7823  159.2971 C.3     1  UNL1        0.0666
     21 S         137.4396  139.9335  160.2190 S.3     1  UNL1       -0.0756
     22 C         137.6555  140.3330  161.6486 C.ar    1  UNL1        0.1930
     23 N         137.4201  141.6962  162.2283 N.ar    1  UNL1       -0.1224
     24 N         137.7638  141.6451  163.6875 N.ar    1  UNL1       -0.1328
     25 C         138.2117  140.2503  164.0096 C.ar    1  UNL1        0.1441
     26 C         138.6496  139.7535  165.3555 C.3     1  UNL1        0.0739
     27 N         138.1448  139.4393  162.7495 N.ar    1  UNL1       -0.2918
     28 C         138.5040  137.9892  162.6141 C.3     1  UNL1        0.1337
@<TRIPOS>BOND
     1    12    13    1
     2    13    14   ar
     3    14    15   ar
     4    15     1    1
     5     1     2   ar
     6     2     3   ar
     7     3     4   ar
     8     4     5   ar
     9     5     6   ar
    10     5     7    1
    11     7     8    1
    12     8     9    1
    13     9    18    1
    14    18    19    1
    15    19    20    1
    16    20    21    1
    17    21    22    1
    18    22    23   ar
    19    23    24   ar
    20    24    25   ar
    21    25    26    1
    22    25    27   ar
    23    27    28    1
    24     9    10    1
    25    10    11    1
    26    15    16   ar
    27    16    17   ar
    28    17    13   ar
    29     6     1   ar
    30    27    22   ar
    31    11     4    1
@<TRIPOS>MOLECULE
*****
 28 31 0 0 0
SMALL
GASTEIGER

@<TRIPOS>ATOM
      1 C         140.9255  141.7757  165.7530 C.ar    1  UNL1        0.0206
      2 C         139.7032  142.6234  165.9464 C.ar    1  UNL1        0.0013
      3 C         138.8505  142.9898  164.7679 C.ar    1  UNL1       -0.0045
      4 C         139.2201  142.5084  163.3961 C.ar    1  UNL1       -0.0247
      5 C         140.4423  141.6608  163.2028 C.ar    1  UNL1       -0.0246
      6 C         141.2951  141.2943  164.3812 C.ar    1  UNL1       -0.0029
      7 C         140.9864  141.0803  161.9311 C.3     1  UNL1        0.0433
      8 C         140.4424  141.2043  160.5387 C.3     1  UNL1        0.0768
      9 N         139.2203  141.9392  160.0741 N.3     1  UNL1       -0.2720
     10 C         138.2400  142.7318  160.8871 C.3     1  UNL1        0.0768
     11 C         138.2399  142.9851  162.3656 C.3     1  UNL1        0.0433
     12 C         143.8829  142.1235  170.1134 C.3     1  UNL1        0.0754
     13 C         143.1375  141.5691  168.9357 C.ar    1  UNL1        0.1548
     14 C         142.3558  142.3650  167.9329 C.ar    1  UNL1        0.0580
     15 C         141.7782  141.4093  166.9314 C.ar    1  UNL1        0.1227
     16 N         142.2029  140.0228  167.3153 N.ar    1  UNL1       -0.0774
     17 O         143.0430  140.1217  168.5540 O.2     1  UNL1       -0.3578
     18 C         138.9413  141.8729  158.6018 C.3     1  UNL1        0.0730
     19 C         139.0222  143.1161  157.7663 C.3     1  UNL1        0.0294
     20 C         140.2872  143.9217  157.7409 C.3     1  UNL1        0.0666
     21 S         140.4693  145.0623  158.6979 S.3     1  UNL1       -0.0756
     22 C         141.2373  144.8585  159.9702 C.ar    1  UNL1        0.1930
     23 N         142.5224  144.0981  160.1121 N.ar    1  UNL1       -0.1224
     24 N         142.9344  144.1490  161.5535 N.ar    1  UNL1       -0.1328
     25 C         141.9039  144.9409  162.3024 C.ar    1  UNL1        0.1441
     26 C         141.9195  145.2416  163.7719 C.3     1  UNL1        0.0739
     27 N         140.8550  145.3795  161.3238 N.ar    1  UNL1       -0.2918
     28 C         139.6376  146.1957  161.6430 C.3     1  UNL1        0.1337
@<TRIPOS>BOND
     1    12    13    1
     2    13    14   ar
     3    14    15   ar
     4    15     1    1
     5     1     2   ar
     6     2     3   ar
     7     3     4   ar
     8     4     5   ar
     9     5     6   ar
    10     5     7    1
    11     7     8    1
    12     8     9    1
    13     9    18    1
    14    18    19    1
    15    19    20    1
    16    20    21    1
    17    21    22    1
    18    22    23   ar
    19    23    24   ar
    20    24    25   ar
    21    25    26    1
    22    25    27   ar
    23    27    28    1
    24     9    10    1
    25    10    11    1
    26    15    16   ar
    27    16    17   ar
    28    17    13   ar
    29     6     1   ar
    30    27    22   ar
    31    11     4    1
@<TRIPOS>MOLECULE
*****
 28 31 0 0 0
SMALL
GASTEIGER

@<TRIPOS>ATOM
      1 C         140.5873  142.7366  166.1268 C.ar    1  UNL1        0.0206
      2 C         139.5071  143.7728  166.2258 C.ar    1  UNL1        0.0013
      3 C         139.2058  144.6567  165.0519 C.ar    1  UNL1       -0.0045
      4 C         139.9847  144.5044  163.7790 C.ar    1  UNL1       -0.0247
      5 C         141.0648  143.4684  163.6801 C.ar    1  UNL1       -0.0246
      6 C         141.3661  142.5844  164.8539 C.ar    1  UNL1       -0.0029
      7 C         141.9539  143.1526  162.5139 C.3     1  UNL1        0.0433
      8 C         141.9823  143.7950  161.1586 C.3     1  UNL1        0.0768
      9 N         141.1288  144.9117  160.6350 N.3     1  UNL1       -0.2720
     10 C         140.0360  145.6620  161.3371 C.3     1  UNL1        0.0768
     11 C         139.5268  145.4807  162.7363 C.3     1  UNL1        0.0433
     12 C         143.0016  140.5710  170.2935 C.3     1  UNL1        0.0754
     13 C         141.9982  140.8573  169.2159 C.ar    1  UNL1        0.1548
     14 C         142.1112  141.9234  168.1667 C.ar    1  UNL1        0.0580
     15 C         140.8885  141.8528  167.3007 C.ar    1  UNL1        0.1227
     16 N         140.0199  140.7431  167.8147 N.ar    1  UNL1       -0.0774
     17 O         140.7057  140.1279  168.9983 O.2     1  UNL1       -0.3578
     18 C         141.4045  145.3342  159.2224 C.3     1  UNL1        0.0730
     19 C         140.9690  144.4641  158.0807 C.3     1  UNL1        0.0294
     20 C         139.5929  143.8671  158.0751 C.3     1  UNL1        0.0666
     21 S         139.3845  142.4585  158.5464 S.3     1  UNL1       -0.0756
     22 C         138.8880  142.1988  159.9378 C.ar    1  UNL1        0.1930
     23 N         137.7983  142.9533  160.6402 N.ar    1  UNL1       -0.1224
     24 N         137.6307  142.3600  162.0076 N.ar    1  UNL1       -0.1328
     25 C         138.6169  141.2388  162.1504 C.ar    1  UNL1        0.1441
     26 C         138.7949  140.3698  163.3599 C.3     1  UNL1        0.0739
     27 N         139.3940  141.1392  160.8711 N.ar    1  UNL1       -0.2918
     28 C         140.4854  140.1531  160.5770 C.3     1  UNL1        0.1337
@<TRIPOS>BOND
     1    12    13    1
     2    13    14   ar
     3    14    15   ar
     4    15     1    1
     5     1     2   ar
     6     2     3   ar
     7     3     4   ar
     8     4     5   ar
     9     5     6   ar
    10     5     7    1
    11     7     8    1
    12     8     9    1
    13     9    18    1
    14    18    19    1
    15    19    20    1
    16    20    21    1
    17    21    22    1
    18    22    23   ar
    19    23    24   ar
    20    24    25   ar
    21    25    26    1
    22    25    27   ar
    23    27    28    1
    24     9    10    1
    25    10    11    1
    26    15    16   ar
    27    16    17   ar
    28    17    13   ar
    29     6     1   ar
    30    27    22   ar
    31    11     4    1
@<TRIPOS>MOLECULE
*****
 28 31 0 0 0
SMALL
GASTEIGER

@<TRIPOS>ATOM
      1 C         140.5593  140.9270  166.8262 C.ar    1  UNL1        0.0206
      2 C         139.3558  140.0339  166.8897 C.ar    1  UNL1        0.0013
      3 C         138.4773  139.8723  165.6846 C.ar    1  UNL1       -0.0045
      4 C         138.8024  140.6039  164.4160 C.ar    1  UNL1       -0.0247
      5 C         140.0058  141.4970  164.3526 C.ar    1  UNL1       -0.0246
      6 C         140.8843  141.6586  165.5576 C.ar    1  UNL1       -0.0029
      7 C         140.5063  142.3111  163.1965 C.3     1  UNL1        0.0433
      8 C         139.9270  142.4332  161.8182 C.3     1  UNL1        0.0768
      9 N         138.7041  141.7714  161.2558 N.3     1  UNL1       -0.2720
     10 C         137.7584  140.8239  161.9326 C.3     1  UNL1        0.0768
     11 C         137.8022  140.3043  163.3391 C.3     1  UNL1        0.0433
     12 C         144.3664  142.6064  170.0767 C.3     1  UNL1        0.0754
     13 C         143.1877  141.8604  169.5255 C.ar    1  UNL1        0.1548
     14 C         142.5984  142.0304  168.1565 C.ar    1  UNL1        0.0580
     15 C         141.4377  141.0885  168.0313 C.ar    1  UNL1        0.1227
     16 N         141.3096  140.3365  169.3229 N.ar    1  UNL1       -0.0774
     17 O         142.3911  140.8136  170.2462 O.2     1  UNL1       -0.3578
     18 C         138.3846  142.1004  159.8277 C.3     1  UNL1        0.0730
     19 C         139.0721  141.3640  158.7163 C.3     1  UNL1        0.0294
     20 C         139.2965  139.8847  158.8230 C.3     1  UNL1        0.0666
     21 S         140.5813  139.3602  159.3922 S.3     1  UNL1       -0.0756
     22 C         140.6009  138.7502  160.7624 C.ar    1  UNL1        0.1930
     23 N         139.6008  137.7739  161.3072 N.ar    1  UNL1       -0.1224
     24 N         140.0057  137.4296  162.7099 N.ar    1  UNL1       -0.1328
     25 C         141.2560  138.1932  163.0320 C.ar    1  UNL1        0.1441
     26 C         142.0067  138.1484  164.3298 C.3     1  UNL1        0.0739
     27 N         141.6239  139.0094  161.8284 N.ar    1  UNL1       -0.2918
     28 C         142.8069  139.9240  161.7114 C.3     1  UNL1        0.1337
@<TRIPOS>BOND
     1    12    13    1
     2    13    14   ar
     3    14    15   ar
     4    15     1    1
     5     1     2   ar
     6     2     3   ar
     7     3     4   ar
     8     4     5   ar
     9     5     6   ar
    10     5     7    1
    11     7     8    1
    12     8     9    1
    13     9    18    1
    14    18    19    1
    15    19    20    1
    16    20    21    1
    17    21    22    1
    18    22    23   ar
    19    23    24   ar
    20    24    25   ar
    21    25    26    1
    22    25    27   ar
    23    27    28    1
    24     9    10    1
    25    10    11    1
    26    15    16   ar
    27    16    17   ar
    28    17    13   ar
    29     6     1   ar
    30    27    22   ar
    31    11     4    1
