@<TRIPOS>MOLECULE
*****
 40 46 0 0 0
SMALL
GASTEIGER

@<TRIPOS>ATOM
      1 C         138.9627  139.1813  164.5816 C.3     1  UNL1        0.0956
      2 C         138.3271  140.4852  164.1994 C.3     1  UNL1        0.0287
      3 C         137.7190  140.6526  162.8384 C.3     1  UNL1        0.0193
      4 C         137.7464  139.5163  161.8597 C.3     1  UNL1        0.0700
      5 C         138.3821  138.2125  162.2419 C.3     1  UNL1        0.0193
      6 C         138.9902  138.0450  163.6029 C.3     1  UNL1        0.0287
      7 C         138.0926  139.3771  162.5939 C.3     1  UNL1        0.1562
      8 O         138.6424  139.2257  163.8244 O.3     1  UNL1       -0.3571
      9 N         137.1383  139.6837  160.4988 N.3     1  UNL1       -0.2926
     10 H         136.3121  140.2703  160.6156 H       1  UNL1        0.1236
     11 C         137.9439  140.2868  159.3865 C.3     1  UNL1        0.1152
     12 C         139.2298  139.6443  158.9579 C.ar    1  UNL1        0.0765
     13 C         140.5321  140.1156  159.5339 C.ar    1  UNL1        0.0193
     14 C         141.8180  139.4731  159.1054 C.ar    1  UNL1        0.0411
     15 C         141.8016  138.3593  158.1009 C.ar    1  UNL1        0.1708
     16 C         140.4993  137.8879  157.5249 C.ar    1  UNL1        0.1682
     17 N         139.2134  138.5304  157.9534 N.ar    1  UNL1       -0.2304
     18 N         140.4828  136.7741  156.5204 N.am    1  UNL1       -0.2639
     19 C         141.7688  136.1316  156.0919 C.2     1  UNL1        0.2718
     20 O         141.7524  135.0176  155.0874 O.2     1  UNL1       -0.2707
     21 C         143.0711  136.6029  156.6679 C.3     1  UNL1        0.2898
     22 O         143.0876  137.7168  157.6724 O.3     1  UNL1       -0.4628
     23 H         139.6281  136.4647  156.1424 H       1  UNL1        0.1565
     24 C         139.5709  139.0139  165.9426 C.3     1  UNL1        0.0607
     25 C         140.6636  139.9368  166.3945 C.3     1  UNL1        0.1381
     26 C         141.8778  140.8011  166.5634 C.3     1  UNL1        0.1405
     27 N         141.8183  141.4228  167.9272 N.ar    1  UNL1       -0.2915
     28 C         142.7416  142.3640  168.6424 C.ar    1  UNL1        0.2611
     29 O         143.9927  142.8441  167.9684 O.2     1  UNL1       -0.2670
     30 C         142.4138  142.8251  170.0316 C.ar    1  UNL1        0.0623
     31 C         141.1627  142.3450  170.7056 C.ar    1  UNL1        0.0254
     32 C         140.2394  141.4038  169.9904 C.ar    1  UNL1        0.0972
     33 N         138.9391  140.7699  170.4121 N.ar    1  UNL1       -0.2400
     34 C         138.1161  139.8350  169.5763 C.ar    1  UNL1        0.1282
     35 C         138.5733  139.4622  168.1972 C.ar    1  UNL1        0.1588
     36 F         137.7504  138.5273  167.3614 F       1  UNL1       -0.2027
     37 C         139.8535  140.0243  167.6539 C.ar    1  UNL1        0.0503
     38 C         140.5672  140.9427  168.6012 C.ar    1  UNL1        0.0806
     39 C         142.7322  139.5622  164.8679 C.3     1  UNL1        0.1744
     40 O         141.2452  139.6564  165.0406 O.3     1  UNL1       -0.3497
@<TRIPOS>BOND
     1    39    40    1
     2    40    25    1
     3    25    24    1
     4    24     1    1
     5     1     2    1
     6     2     3    1
     7     3     4    1
     8     4     9    1
     9     9    11    1
    10    11    12    1
    11    12    13   ar
    12    13    14   ar
    13    14    15   ar
    14    15    16   ar
    15    16    17   ar
    16    16    18    1
    17    18    19   am
    18    19    20    2
    19    19    21    1
    20    21    22    1
    21     4     5    1
    22     5     6    1
    23     4     7    1
    24     7     8    1
    25    25    26    1
    26    26    27    1
    27    27    28   ar
    28    28    29    2
    29    28    30   ar
    30    30    31   ar
    31    31    32   ar
    32    32    33   ar
    33    33    34   ar
    34    34    35   ar
    35    35    36    1
    36    35    37   ar
    37    37    38   ar
    38    37    25    1
    39     6     1    1
    40    38    27   ar
    41     8     1    1
    42    38    32   ar
    43    17    12   ar
    44    22    15    1
    45     9    10    1
    46    18    23    1
@<TRIPOS>MOLECULE
*****
 40 46 0 0 0
SMALL
GASTEIGER

@<TRIPOS>ATOM
      1 C         139.0446  139.1023  164.7483 C.3     1  UNL1        0.0956
      2 C         139.1258  138.0068  163.7268 C.3     1  UNL1        0.0287
      3 C         138.4948  138.1904  162.3784 C.3     1  UNL1        0.0193
      4 C         137.7828  139.4694  162.0514 C.3     1  UNL1        0.0700
      5 C         137.7016  140.5649  163.0729 C.3     1  UNL1        0.0193
      6 C         138.3325  140.3814  164.4213 C.3     1  UNL1        0.0287
      7 C         138.1131  139.4150  162.8038 C.3     1  UNL1        0.1562
      8 O         138.6835  139.2490  164.0230 O.3     1  UNL1       -0.3571
      9 N         137.1518  139.6530  160.7030 N.3     1  UNL1       -0.2926
     10 H         136.3137  140.2169  160.8444 H       1  UNL1        0.1236
     11 C         137.9272  140.3004  159.5941 C.3     1  UNL1        0.1152
     12 C         139.4017  140.5310  159.7453 C.ar    1  UNL1        0.0765
     13 C         140.3774  139.5457  159.1733 C.ar    1  UNL1        0.0193
     14 C         141.8518  139.7763  159.3244 C.ar    1  UNL1        0.0411
     15 C         142.3506  140.9922  160.0474 C.ar    1  UNL1        0.1708
     16 C         141.3749  141.9775  160.6194 C.ar    1  UNL1        0.1682
     17 N         139.9005  141.7469  160.4683 N.ar    1  UNL1       -0.2304
     18 N         141.8736  143.1934  161.3424 N.am    1  UNL1       -0.2639
     19 C         143.3481  143.4240  161.4935 C.2     1  UNL1        0.2718
     20 O         143.8468  144.6399  162.2166 O.2     1  UNL1       -0.2707
     21 C         144.3238  142.4387  160.9216 C.3     1  UNL1        0.2898
     22 O         143.8251  141.2227  160.1985 O.3     1  UNL1       -0.4628
     23 H         141.2332  143.8401  161.7178 H       1  UNL1        0.1565
     24 C         139.6756  138.9187  166.0967 C.3     1  UNL1        0.0607
     25 C         140.7545  139.8552  166.5537 C.3     1  UNL1        0.1381
     26 C         141.9666  140.7199  166.7359 C.3     1  UNL1        0.1405
     27 N         141.8537  141.4017  168.0673 N.ar    1  UNL1       -0.2915
     28 C         142.7524  142.3689  168.7790 C.ar    1  UNL1        0.2611
     29 O         144.0342  142.8123  168.1384 O.2     1  UNL1       -0.2670
     30 C         142.3694  142.8928  170.1313 C.ar    1  UNL1        0.0623
     31 C         141.0876  142.4494  170.7719 C.ar    1  UNL1        0.0254
     32 C         140.1888  141.4821  170.0602 C.ar    1  UNL1        0.0972
     33 N         138.8674  140.8742  170.4537 N.ar    1  UNL1       -0.2400
     34 C         138.0741  139.9074  169.6255 C.ar    1  UNL1        0.1282
     35 C         138.5866  139.4715  168.2849 C.ar    1  UNL1        0.1588
     36 F         137.7933  138.5047  167.4568 F       1  UNL1       -0.2027
     37 C         139.8926  140.0025  167.7724 C.ar    1  UNL1        0.0503
     38 C         140.5718  140.9583  168.7079 C.ar    1  UNL1        0.0806
     39 C         142.6468  138.6926  165.2055 C.3     1  UNL1        0.1744
     40 O         141.3910  139.5121  165.2395 O.3     1  UNL1       -0.3497
@<TRIPOS>BOND
     1    39    40    1
     2    40    25    1
     3    25    24    1
     4    24     1    1
     5     1     2    1
     6     2     3    1
     7     3     4    1
     8     4     9    1
     9     9    11    1
    10    11    12    1
    11    12    13   ar
    12    13    14   ar
    13    14    15   ar
    14    15    16   ar
    15    16    17   ar
    16    16    18    1
    17    18    19   am
    18    19    20    2
    19    19    21    1
    20    21    22    1
    21     4     5    1
    22     5     6    1
    23     4     7    1
    24     7     8    1
    25    25    26    1
    26    26    27    1
    27    27    28   ar
    28    28    29    2
    29    28    30   ar
    30    30    31   ar
    31    31    32   ar
    32    32    33   ar
    33    33    34   ar
    34    34    35   ar
    35    35    36    1
    36    35    37   ar
    37    37    38   ar
    38    37    25    1
    39     6     1    1
    40    38    27   ar
    41     8     1    1
    42    38    32   ar
    43    17    12   ar
    44    22    15    1
    45     9    10    1
    46    18    23    1
@<TRIPOS>MOLECULE
*****
 40 46 0 0 0
SMALL
GASTEIGER

@<TRIPOS>ATOM
      1 C         139.7495  139.2104  163.7580 C.3     1  UNL1        0.0956
      2 C         139.3256  140.5890  163.3454 C.3     1  UNL1        0.0287
      3 C         138.5306  140.7845  162.0886 C.3     1  UNL1        0.0193
      4 C         138.1594  139.6015  161.2443 C.3     1  UNL1        0.0700
      5 C         138.5832  138.2231  161.6569 C.3     1  UNL1        0.0193
      6 C         139.3782  138.0275  162.9138 C.3     1  UNL1        0.0287
      7 C         138.5960  139.4446  161.9246 C.3     1  UNL1        0.1562
      8 O         139.3149  139.2678  163.0610 O.3     1  UNL1       -0.3571
      9 N         137.3643  139.7970  159.9874 N.3     1  UNL1       -0.2926
     10 H         136.6611  140.5072  160.1913 H       1  UNL1        0.1236
     11 C         138.0521  140.2190  158.7230 C.3     1  UNL1        0.1152
     12 C         139.3573  139.5906  158.3335 C.ar    1  UNL1        0.0765
     13 C         140.6498  140.2174  158.7654 C.ar    1  UNL1        0.0193
     14 C         141.9551  139.5891  158.3760 C.ar    1  UNL1        0.0411
     15 C         141.9678  138.3340  157.5547 C.ar    1  UNL1        0.1708
     16 C         140.6752  137.7072  157.1229 C.ar    1  UNL1        0.1682
     17 N         139.3700  138.3355  157.5123 N.ar    1  UNL1       -0.2304
     18 N         140.6878  136.4521  156.3016 N.am    1  UNL1       -0.2639
     19 C         141.9931  135.8238  155.9122 C.2     1  UNL1        0.2718
     20 O         142.0057  134.5686  155.0909 O.2     1  UNL1       -0.2707
     21 C         143.2856  136.4505  156.3440 C.3     1  UNL1        0.2898
     22 O         143.2730  137.7057  157.1653 O.3     1  UNL1       -0.4628
     23 H         139.8395  136.0407  156.0182 H       1  UNL1        0.1565
     24 C         140.5445  139.0149  165.0149 C.3     1  UNL1        0.0607
     25 C         139.9869  139.4648  166.3327 C.3     1  UNL1        0.1381
     26 C         139.2011  139.7092  167.5868 C.3     1  UNL1        0.1405
     27 N         139.9233  140.7491  168.3912 N.ar    1  UNL1       -0.2915
     28 C         139.6182  141.3848  169.7151 C.ar    1  UNL1        0.2611
     29 O         138.3861  140.9865  170.4721 O.2     1  UNL1       -0.2670
     30 C         140.5453  142.4188  170.2819 C.ar    1  UNL1        0.0623
     31 C         141.7774  142.8171  169.5249 C.ar    1  UNL1        0.0254
     32 C         142.0826  142.1814  168.2010 C.ar    1  UNL1        0.0972
     33 N         143.2243  142.3817  167.2383 N.ar    1  UNL1       -0.2400
     34 C         143.3974  141.6631  165.9331 C.ar    1  UNL1        0.1282
     35 C         142.3826  140.6491  165.4949 C.ar    1  UNL1        0.1588
     36 F         142.5558  139.9304  164.1898 F       1  UNL1       -0.2027
     37 C         141.1947  140.3537  166.3620 C.ar    1  UNL1        0.0503
     38 C         141.1555  141.1474  167.6341 C.ar    1  UNL1        0.0806
     39 C         137.6731  138.4256  166.8955 C.3     1  UNL1        0.1744
     40 O         138.8955  138.4819  166.0280 O.3     1  UNL1       -0.3497
@<TRIPOS>BOND
     1    39    40    1
     2    40    25    1
     3    25    24    1
     4    24     1    1
     5     1     2    1
     6     2     3    1
     7     3     4    1
     8     4     9    1
     9     9    11    1
    10    11    12    1
    11    12    13   ar
    12    13    14   ar
    13    14    15   ar
    14    15    16   ar
    15    16    17   ar
    16    16    18    1
    17    18    19   am
    18    19    20    2
    19    19    21    1
    20    21    22    1
    21     4     5    1
    22     5     6    1
    23     4     7    1
    24     7     8    1
    25    25    26    1
    26    26    27    1
    27    27    28   ar
    28    28    29    2
    29    28    30   ar
    30    30    31   ar
    31    31    32   ar
    32    32    33   ar
    33    33    34   ar
    34    34    35   ar
    35    35    36    1
    36    35    37   ar
    37    37    38   ar
    38    37    25    1
    39     6     1    1
    40    38    27   ar
    41     8     1    1
    42    38    32   ar
    43    17    12   ar
    44    22    15    1
    45     9    10    1
    46    18    23    1
@<TRIPOS>MOLECULE
*****
 40 46 0 0 0
SMALL
GASTEIGER

@<TRIPOS>ATOM
      1 C         144.0295  142.1188  159.5947 C.3     1  UNL1        0.0956
      2 C         144.8484  142.4531  158.3832 C.3     1  UNL1        0.0287
      3 C         144.9635  141.4657  157.2598 C.3     1  UNL1        0.0193
      4 C         144.2596  140.1441  157.3480 C.3     1  UNL1        0.0700
      5 C         143.4407  139.8098  158.5594 C.3     1  UNL1        0.0193
      6 C         143.3256  140.7971  159.6828 C.3     1  UNL1        0.0287
      7 C         144.1670  140.6529  157.9888 C.3     1  UNL1        0.1562
      8 O         144.0630  141.5457  159.0045 O.3     1  UNL1       -0.3571
      9 N         144.3747  139.1567  156.2246 N.3     1  UNL1       -0.2926
     10 H         144.9050  138.3628  156.5835 H       1  UNL1        0.1236
     11 C         143.1370  138.5982  155.5874 C.3     1  UNL1        0.1152
     12 C         142.8257  137.1358  155.7084 C.ar    1  UNL1        0.0765
     13 C         141.5636  136.5859  155.1128 C.ar    1  UNL1        0.0193
     14 C         141.2522  135.1236  155.2337 C.ar    1  UNL1        0.0411
     15 C         142.2029  134.2111  155.9503 C.ar    1  UNL1        0.1708
     16 C         143.4650  134.7610  156.5459 C.ar    1  UNL1        0.1682
     17 N         143.7764  136.2233  156.4250 N.ar    1  UNL1       -0.2304
     18 N         144.4158  133.8485  157.2624 N.am    1  UNL1       -0.2639
     19 C         144.1044  132.3862  157.3834 C.2     1  UNL1        0.2718
     20 O         145.0552  131.4737  158.1000 O.2     1  UNL1       -0.2707
     21 C         142.8424  131.8363  156.7878 C.3     1  UNL1        0.2898
     22 O         141.8915  132.7488  156.0712 O.3     1  UNL1       -0.4628
     23 H         145.2441  134.2094  157.6534 H       1  UNL1        0.1565
     24 C         143.9144  143.1061  160.7181 C.3     1  UNL1        0.0607
     25 C         142.5827  143.7100  161.0524 C.3     1  UNL1        0.1381
     26 C         141.2555  144.4080  161.0876 C.3     1  UNL1        0.1405
     27 N         140.6920  144.2631  162.4702 N.ar    1  UNL1       -0.2915
     28 C         139.4140  144.7465  163.0890 C.ar    1  UNL1        0.2611
     29 O         138.4350  145.5341  162.2697 O.2     1  UNL1       -0.2670
     30 C         139.1150  144.4423  164.5270 C.ar    1  UNL1        0.0623
     31 C         140.0940  143.6547  165.3463 C.ar    1  UNL1        0.0254
     32 C         141.3721  143.1713  164.7275 C.ar    1  UNL1        0.0972
     33 N         142.5173  142.3753  165.2978 N.ar    1  UNL1       -0.2400
     34 C         143.7473  141.9604  164.5461 C.ar    1  UNL1        0.1282
     35 C         143.9084  142.3396  163.1038 C.ar    1  UNL1        0.1588
     36 F         145.1384  141.9247  162.3522 F       1  UNL1       -0.2027
     37 C         142.8395  143.1337  162.4132 C.ar    1  UNL1        0.0503
     38 C         141.6711  143.4755  163.2895 C.ar    1  UNL1        0.0806
     39 C         141.4317  144.9011  159.0507 C.3     1  UNL1        0.1744
     40 O         142.6042  144.1601  159.6217 O.3     1  UNL1       -0.3497
@<TRIPOS>BOND
     1    39    40    1
     2    40    25    1
     3    25    24    1
     4    24     1    1
     5     1     2    1
     6     2     3    1
     7     3     4    1
     8     4     9    1
     9     9    11    1
    10    11    12    1
    11    12    13   ar
    12    13    14   ar
    13    14    15   ar
    14    15    16   ar
    15    16    17   ar
    16    16    18    1
    17    18    19   am
    18    19    20    2
    19    19    21    1
    20    21    22    1
    21     4     5    1
    22     5     6    1
    23     4     7    1
    24     7     8    1
    25    25    26    1
    26    26    27    1
    27    27    28   ar
    28    28    29    2
    29    28    30   ar
    30    30    31   ar
    31    31    32   ar
    32    32    33   ar
    33    33    34   ar
    34    34    35   ar
    35    35    36    1
    36    35    37   ar
    37    37    38   ar
    38    37    25    1
    39     6     1    1
    40    38    27   ar
    41     8     1    1
    42    38    32   ar
    43    17    12   ar
    44    22    15    1
    45     9    10    1
    46    18    23    1
@<TRIPOS>MOLECULE
*****
 40 46 0 0 0
SMALL
GASTEIGER

@<TRIPOS>ATOM
      1 C         141.3332  144.7263  161.2047 C.3     1  UNL1        0.0956
      2 C         141.0691  145.3705  162.5334 C.3     1  UNL1        0.0287
      3 C         142.0122  145.1436  163.6776 C.3     1  UNL1        0.0193
      4 C         143.2194  144.2726  163.4931 C.3     1  UNL1        0.0700
      5 C         143.4835  143.6285  162.1645 C.3     1  UNL1        0.0193
      6 C         142.5404  143.8552  161.0202 C.3     1  UNL1        0.0287
      7 C         142.7312  144.3675  162.8368 C.3     1  UNL1        0.1562
      8 O         141.8785  144.5726  161.8022 O.3     1  UNL1       -0.3571
      9 N         144.1625  144.0458  164.6373 N.3     1  UNL1       -0.2926
     10 H         143.9107  144.7160  165.3637 H       1  UNL1        0.1236
     11 C         144.2330  142.6998  165.2955 C.3     1  UNL1        0.1152
     12 C         143.0733  142.1989  166.1044 C.ar    1  UNL1        0.0765
     13 C         142.0021  141.3773  165.4506 C.ar    1  UNL1        0.0193
     14 C         140.8424  140.8764  166.2595 C.ar    1  UNL1        0.0411
     15 C         140.7540  141.1970  167.7222 C.ar    1  UNL1        0.1708
     16 C         141.8253  142.0185  168.3760 C.ar    1  UNL1        0.1682
     17 N         142.9849  142.5195  167.5671 N.ar    1  UNL1       -0.2304
     18 N         141.7370  142.3392  169.8386 N.am    1  UNL1       -0.2639
     19 C         140.5773  141.8382  170.6474 C.2     1  UNL1        0.2718
     20 O         140.4889  142.1589  172.1102 O.2     1  UNL1       -0.2707
     21 C         139.5061  141.0167  169.9938 C.3     1  UNL1        0.2898
     22 O         139.5944  140.6960  168.5310 O.3     1  UNL1       -0.4628
     23 H         142.4401  142.8784  170.2677 H       1  UNL1        0.1565
     24 C         140.3901  144.9531  160.0606 C.3     1  UNL1        0.0607
     25 C         139.5515  143.8217  159.5442 C.3     1  UNL1        0.1381
     26 C         138.6105  142.6745  159.3237 C.3     1  UNL1        0.1405
     27 N         138.6944  142.2771  157.8798 N.ar    1  UNL1       -0.2915
     28 C         137.9950  141.2107  157.0900 C.ar    1  UNL1        0.2611
     29 O         137.0021  140.3093  157.7620 O.2     1  UNL1       -0.2670
     30 C         138.2885  141.0459  155.6283 C.ar    1  UNL1        0.0623
     31 C         139.2814  141.9474  154.9563 C.ar    1  UNL1        0.0254
     32 C         139.9808  143.0137  155.7461 C.ar    1  UNL1        0.0972
     33 N         141.0050  144.0428  155.3432 N.ar    1  UNL1       -0.2400
     34 C         141.6230  145.0588  156.2575 C.ar    1  UNL1        0.1282
     35 C         141.2290  145.1040  157.7041 C.ar    1  UNL1        0.1588
     36 F         141.8469  146.1200  158.6183 F       1  UNL1       -0.2027
     37 C         140.2170  144.1331  158.2365 C.ar    1  UNL1        0.0503
     38 C         139.6873  143.1785  157.2078 C.ar    1  UNL1        0.0806
     39 C         138.2128  142.5906  161.3995 C.3     1  UNL1        0.1744
     40 O         139.0613  143.7467  160.9598 O.3     1  UNL1       -0.3497
@<TRIPOS>BOND
     1    39    40    1
     2    40    25    1
     3    25    24    1
     4    24     1    1
     5     1     2    1
     6     2     3    1
     7     3     4    1
     8     4     9    1
     9     9    11    1
    10    11    12    1
    11    12    13   ar
    12    13    14   ar
    13    14    15   ar
    14    15    16   ar
    15    16    17   ar
    16    16    18    1
    17    18    19   am
    18    19    20    2
    19    19    21    1
    20    21    22    1
    21     4     5    1
    22     5     6    1
    23     4     7    1
    24     7     8    1
    25    25    26    1
    26    26    27    1
    27    27    28   ar
    28    28    29    2
    29    28    30   ar
    30    30    31   ar
    31    31    32   ar
    32    32    33   ar
    33    33    34   ar
    34    34    35   ar
    35    35    36    1
    36    35    37   ar
    37    37    38   ar
    38    37    25    1
    39     6     1    1
    40    38    27   ar
    41     8     1    1
    42    38    32   ar
    43    17    12   ar
    44    22    15    1
    45     9    10    1
    46    18    23    1
@<TRIPOS>MOLECULE
*****
 40 46 0 0 0
SMALL
GASTEIGER

@<TRIPOS>ATOM
      1 C         142.0384  138.3658  162.0490 C.3     1  UNL1        0.0956
      2 C         140.5930  138.3173  161.6504 C.3     1  UNL1        0.0287
      3 C         139.5515  137.9180  162.6533 C.3     1  UNL1        0.0193
      4 C         139.9552  137.5674  164.0547 C.3     1  UNL1        0.0700
      5 C         141.4004  137.6159  164.4532 C.3     1  UNL1        0.0193
      6 C         142.4421  138.0152  163.4504 C.3     1  UNL1        0.0287
      7 C         140.5618  137.7803  163.5401 C.3     1  UNL1        0.1562
      8 O         141.5036  138.1412  162.6334 O.3     1  UNL1       -0.3571
      9 N         138.9136  137.1681  165.0576 N.3     1  UNL1       -0.2926
     10 H         139.3265  136.4359  165.6354 H       1  UNL1        0.1236
     11 C         138.3449  138.1910  165.9958 C.3     1  UNL1        0.1152
     12 C         138.7485  139.6303  165.8703 C.ar    1  UNL1        0.0765
     13 C         139.7544  140.2124  166.8186 C.ar    1  UNL1        0.0193
     14 C         140.1581  141.6516  166.6932 C.ar    1  UNL1        0.0411
     15 C         139.5558  142.5087  165.6197 C.ar    1  UNL1        0.1708
     16 C         138.5498  141.9266  164.6714 C.ar    1  UNL1        0.1682
     17 N         138.1462  140.4874  164.7968 N.ar    1  UNL1       -0.2304
     18 N         137.9475  142.7836  163.5978 N.am    1  UNL1       -0.2639
     19 C         138.3511  144.2228  163.4725 C.2     1  UNL1        0.2718
     20 O         137.7487  145.0800  162.3989 O.2     1  UNL1       -0.2707
     21 C         139.3570  144.8050  164.4207 C.3     1  UNL1        0.2898
     22 O         139.9594  143.9480  165.4943 O.3     1  UNL1       -0.4628
     23 H         137.2872  142.4015  162.9755 H       1  UNL1        0.1565
     24 C         143.0799  138.7651  161.0461 C.3     1  UNL1        0.0607
     25 C         143.0499  140.1364  160.4390 C.3     1  UNL1        0.1381
     26 C         143.0520  141.6039  160.1286 C.3     1  UNL1        0.1405
     27 N         142.9055  141.7640  158.6443 N.ar    1  UNL1       -0.2915
     28 C         142.8446  142.9792  157.7671 C.ar    1  UNL1        0.2611
     29 O         142.9373  144.3478  158.3740 O.2     1  UNL1       -0.2670
     30 C         142.6910  142.8257  156.2829 C.ar    1  UNL1        0.0623
     31 C         142.5983  141.4571  155.6760 C.ar    1  UNL1        0.0254
     32 C         142.6592  140.2420  156.5533 C.ar    1  UNL1        0.0972
     33 N         142.5926  138.7724  156.2271 N.ar    1  UNL1       -0.2400
     34 C         142.6681  137.6558  157.2258 C.ar    1  UNL1        0.1282
     35 C         142.8228  137.9643  158.6855 C.ar    1  UNL1        0.1588
     36 F         142.8983  136.8477  159.6842 F       1  UNL1       -0.2027
     37 C         142.9021  139.3895  159.1466 C.ar    1  UNL1        0.0503
     38 C         142.8129  140.3954  158.0374 C.ar    1  UNL1        0.0806
     39 C         144.5552  140.9913  162.3763 C.3     1  UNL1        0.1744
     40 O         143.2040  140.5966  161.8583 O.3     1  UNL1       -0.3497
@<TRIPOS>BOND
     1    39    40    1
     2    40    25    1
     3    25    24    1
     4    24     1    1
     5     1     2    1
     6     2     3    1
     7     3     4    1
     8     4     9    1
     9     9    11    1
    10    11    12    1
    11    12    13   ar
    12    13    14   ar
    13    14    15   ar
    14    15    16   ar
    15    16    17   ar
    16    16    18    1
    17    18    19   am
    18    19    20    2
    19    19    21    1
    20    21    22    1
    21     4     5    1
    22     5     6    1
    23     4     7    1
    24     7     8    1
    25    25    26    1
    26    26    27    1
    27    27    28   ar
    28    28    29    2
    29    28    30   ar
    30    30    31   ar
    31    31    32   ar
    32    32    33   ar
    33    33    34   ar
    34    34    35   ar
    35    35    36    1
    36    35    37   ar
    37    37    38   ar
    38    37    25    1
    39     6     1    1
    40    38    27   ar
    41     8     1    1
    42    38    32   ar
    43    17    12   ar
    44    22    15    1
    45     9    10    1
    46    18    23    1
@<TRIPOS>MOLECULE
*****
 40 46 0 0 0
SMALL
GASTEIGER

@<TRIPOS>ATOM
      1 C         140.3455  143.0434  162.3193 C.3     1  UNL1        0.0956
      2 C         139.8615  143.3710  163.7009 C.3     1  UNL1        0.0287
      3 C         139.0125  142.3879  164.4509 C.3     1  UNL1        0.0193
      4 C         138.6472  141.0772  163.8195 C.3     1  UNL1        0.0700
      5 C         139.1311  140.7496  162.4380 C.3     1  UNL1        0.0193
      6 C         139.9803  141.7327  161.6878 C.3     1  UNL1        0.0287
      7 C         139.1148  141.5841  163.3694 C.3     1  UNL1        0.1562
      8 O         139.8825  142.4730  162.6912 O.3     1  UNL1       -0.3571
      9 N         137.7982  140.0941  164.5695 N.3     1  UNL1       -0.2926
     10 H         137.2350  139.6020  163.8759 H       1  UNL1        0.1236
     11 C         138.4439  139.0456  165.4259 C.3     1  UNL1        0.1152
     12 C         139.5204  139.4292  166.3975 C.ar    1  UNL1        0.0765
     13 C         140.9587  139.1593  166.0684 C.ar    1  UNL1        0.0193
     14 C         142.0353  139.5429  167.0399 C.ar    1  UNL1        0.0411
     15 C         141.6735  140.1964  168.3407 C.ar    1  UNL1        0.1708
     16 C         140.2352  140.4664  168.6699 C.ar    1  UNL1        0.1682
     17 N         139.1586  140.0827  167.6983 N.ar    1  UNL1       -0.2304
     18 N         139.8733  141.1199  169.9706 N.am    1  UNL1       -0.2639
     19 C         140.9499  141.5035  170.9421 C.2     1  UNL1        0.2718
     20 O         140.5880  142.1571  172.2430 O.2     1  UNL1       -0.2707
     21 C         142.3881  141.2336  170.6130 C.3     1  UNL1        0.2898
     22 O         142.7500  140.5800  169.3122 O.3     1  UNL1       -0.4628
     23 H         138.9293  141.2970  170.1866 H       1  UNL1        0.1565
     24 C         141.1945  144.0265  161.5692 C.3     1  UNL1        0.0607
     25 C         140.7634  144.5114  160.2169 C.3     1  UNL1        0.1381
     26 C         140.0896  145.1175  159.0217 C.3     1  UNL1        0.1405
     27 N         140.9244  144.8111  157.8137 N.ar    1  UNL1       -0.2915
     28 C         140.7549  145.1536  156.3633 C.ar    1  UNL1        0.2611
     29 O         139.5650  145.9491  155.9146 O.2     1  UNL1       -0.2670
     30 C         141.7753  144.7006  155.3615 C.ar    1  UNL1        0.0623
     31 C         142.9652  143.9051  155.8102 C.ar    1  UNL1        0.0254
     32 C         143.1347  143.5626  157.2606 C.ar    1  UNL1        0.0972
     33 N         144.2085  142.7920  157.9842 N.ar    1  UNL1       -0.2400
     34 C         144.2437  142.5267  159.4602 C.ar    1  UNL1        0.1282
     35 C         143.1468  143.0458  160.3418 C.ar    1  UNL1        0.1588
     36 F         143.1820  142.7805  161.8178 F       1  UNL1       -0.2027
     37 C         142.0148  143.8304  159.7476 C.ar    1  UNL1        0.0503
     38 C         142.1143  144.0155  158.2624 C.ar    1  UNL1        0.0806
     39 C         139.7274  146.4355  161.6220 C.3     1  UNL1        0.1744
     40 O         139.6022  145.0911  160.9688 O.3     1  UNL1       -0.3497
@<TRIPOS>BOND
     1    39    40    1
     2    40    25    1
     3    25    24    1
     4    24     1    1
     5     1     2    1
     6     2     3    1
     7     3     4    1
     8     4     9    1
     9     9    11    1
    10    11    12    1
    11    12    13   ar
    12    13    14   ar
    13    14    15   ar
    14    15    16   ar
    15    16    17   ar
    16    16    18    1
    17    18    19   am
    18    19    20    2
    19    19    21    1
    20    21    22    1
    21     4     5    1
    22     5     6    1
    23     4     7    1
    24     7     8    1
    25    25    26    1
    26    26    27    1
    27    27    28   ar
    28    28    29    2
    29    28    30   ar
    30    30    31   ar
    31    31    32   ar
    32    32    33   ar
    33    33    34   ar
    34    34    35   ar
    35    35    36    1
    36    35    37   ar
    37    37    38   ar
    38    37    25    1
    39     6     1    1
    40    38    27   ar
    41     8     1    1
    42    38    32   ar
    43    17    12   ar
    44    22    15    1
    45     9    10    1
    46    18    23    1
@<TRIPOS>MOLECULE
*****
 40 46 0 0 0
SMALL
GASTEIGER

@<TRIPOS>ATOM
      1 C         139.4388  138.9859  163.8112 C.3     1  UNL1        0.0956
      2 C         139.1500  137.8502  162.8747 C.3     1  UNL1        0.0287
      3 C         138.3370  138.0872  161.6366 C.3     1  UNL1        0.0193
      4 C         137.8129  139.4599  161.3348 C.3     1  UNL1        0.0700
      5 C         138.1017  140.5955  162.2712 C.3     1  UNL1        0.0193
      6 C         138.9147  140.3586  163.5094 C.3     1  UNL1        0.0287
      7 C         138.2538  139.3787  162.0256 C.3     1  UNL1        0.1562
      8 O         138.9888  139.1644  163.1451 O.3     1  UNL1       -0.3571
      9 N         137.0000  139.6969  160.0967 N.3     1  UNL1       -0.2926
     10 H         136.2141  140.2873  160.3690 H       1  UNL1        0.1236
     11 C         137.6303  140.3408  158.8976 C.3     1  UNL1        0.1152
     12 C         139.0669  140.0642  158.5660 C.ar    1  UNL1        0.0765
     13 C         139.4816  138.6963  158.1112 C.ar    1  UNL1        0.0193
     14 C         140.9180  138.4196  157.7796 C.ar    1  UNL1        0.0411
     15 C         141.9398  139.5108  157.9028 C.ar    1  UNL1        0.1708
     16 C         141.5251  140.8787  158.3576 C.ar    1  UNL1        0.1682
     17 N         140.0887  141.1554  158.6892 N.ar    1  UNL1       -0.2304
     18 N         142.5469  141.9699  158.4808 N.am    1  UNL1       -0.2639
     19 C         143.9833  141.6932  158.1492 C.2     1  UNL1        0.2718
     20 O         145.0052  142.7845  158.2724 O.2     1  UNL1       -0.2707
     21 C         144.3981  140.3254  157.6944 C.3     1  UNL1        0.2898
     22 O         143.3763  139.2340  157.5712 O.3     1  UNL1       -0.4628
     23 H         142.2747  142.8677  158.7793 H       1  UNL1        0.1565
     24 C         140.2517  138.7489  165.0493 C.3     1  UNL1        0.0607
     25 C         139.7774  139.2774  166.3705 C.3     1  UNL1        0.1381
     26 C         139.0638  139.6080  167.6478 C.3     1  UNL1        0.1405
     27 N         139.8664  140.6485  168.3713 N.ar    1  UNL1       -0.2915
     28 C         139.6521  141.3517  169.6787 C.ar    1  UNL1        0.2611
     29 O         138.4425  141.0393  170.5089 O.2     1  UNL1       -0.2670
     30 C         140.6473  142.3674  170.1559 C.ar    1  UNL1        0.0623
     31 C         141.8569  142.6798  169.3257 C.ar    1  UNL1        0.0254
     32 C         142.0713  141.9766  168.0183 C.ar    1  UNL1        0.0972
     33 N         143.1725  142.0866  166.9958 N.ar    1  UNL1       -0.2400
     34 C         143.2526  141.3070  165.7168 C.ar    1  UNL1        0.1282
     35 C         142.1769  140.3205  165.3712 C.ar    1  UNL1        0.1588
     36 F         142.2570  139.5409  164.0922 F       1  UNL1       -0.2027
     37 C         141.0210  140.1135  166.3046 C.ar    1  UNL1        0.0503
     38 C         141.0760  140.9609  167.5411 C.ar    1  UNL1        0.0806
     39 C         137.5000  138.2939  167.1426 C.3     1  UNL1        0.1744
     40 O         138.6329  138.3308  166.1603 O.3     1  UNL1       -0.3497
@<TRIPOS>BOND
     1    39    40    1
     2    40    25    1
     3    25    24    1
     4    24     1    1
     5     1     2    1
     6     2     3    1
     7     3     4    1
     8     4     9    1
     9     9    11    1
    10    11    12    1
    11    12    13   ar
    12    13    14   ar
    13    14    15   ar
    14    15    16   ar
    15    16    17   ar
    16    16    18    1
    17    18    19   am
    18    19    20    2
    19    19    21    1
    20    21    22    1
    21     4     5    1
    22     5     6    1
    23     4     7    1
    24     7     8    1
    25    25    26    1
    26    26    27    1
    27    27    28   ar
    28    28    29    2
    29    28    30   ar
    30    30    31   ar
    31    31    32   ar
    32    32    33   ar
    33    33    34   ar
    34    34    35   ar
    35    35    36    1
    36    35    37   ar
    37    37    38   ar
    38    37    25    1
    39     6     1    1
    40    38    27   ar
    41     8     1    1
    42    38    32   ar
    43    17    12   ar
    44    22    15    1
    45     9    10    1
    46    18    23    1
@<TRIPOS>MOLECULE
*****
 40 46 0 0 0
SMALL
GASTEIGER

@<TRIPOS>ATOM
      1 C         140.9233  139.9588  162.3803 C.3     1  UNL1        0.0956
      2 C         141.7023  138.7011  162.6288 C.3     1  UNL1        0.0287
      3 C         142.4375  138.0391  161.5014 C.3     1  UNL1        0.0193
      4 C         142.3937  138.6346  160.1253 C.3     1  UNL1        0.0700
      5 C         141.6148  139.8922  159.8768 C.3     1  UNL1        0.0193
      6 C         140.8796  140.5543  161.0043 C.3     1  UNL1        0.0287
      7 C         141.9749  139.0334  160.7116 C.3     1  UNL1        0.1562
      8 O         141.3102  139.6320  161.7310 O.3     1  UNL1       -0.3571
      9 N         143.1289  137.9726  158.9979 N.3     1  UNL1       -0.2926
     10 H         143.5947  137.1544  159.3902 H       1  UNL1        0.1236
     11 C         142.3790  137.5044  157.7861 C.3     1  UNL1        0.1152
     12 C         142.7738  136.2264  157.1071 C.ar    1  UNL1        0.0765
     13 C         142.6987  136.1168  155.6130 C.ar    1  UNL1        0.0193
     14 C         143.0935  134.8389  154.9340 C.ar    1  UNL1        0.0411
     15 C         143.5633  133.6706  155.7490 C.ar    1  UNL1        0.1708
     16 C         143.6384  133.7802  157.2431 C.ar    1  UNL1        0.1682
     17 N         143.2437  135.0581  157.9222 N.ar    1  UNL1       -0.2304
     18 N         144.1083  132.6120  158.0582 N.am    1  UNL1       -0.2639
     19 C         144.5031  131.3341  157.3792 C.2     1  UNL1        0.2718
     20 O         144.9729  130.1657  158.1943 O.2     1  UNL1       -0.2707
     21 C         144.4280  131.2244  155.8851 C.3     1  UNL1        0.2898
     22 O         143.9581  132.3927  155.0700 O.3     1  UNL1       -0.4628
     23 H         144.1576  132.6840  159.0388 H       1  UNL1        0.1565
     24 C         140.1882  140.6208  163.5078 C.3     1  UNL1        0.0607
     25 C         140.9445  141.1358  164.6964 C.3     1  UNL1        0.1381
     26 C         141.8786  141.7925  165.6690 C.3     1  UNL1        0.1405
     27 N         141.4473  141.4128  167.0546 N.ar    1  UNL1       -0.2915
     28 C         141.9927  141.7635  168.4071 C.ar    1  UNL1        0.2611
     29 O         143.1935  142.6550  168.5235 O.2     1  UNL1       -0.2670
     30 C         141.3374  141.2229  169.6433 C.ar    1  UNL1        0.0623
     31 C         140.1367  140.3314  169.5270 C.ar    1  UNL1        0.0254
     32 C         139.5912  139.9807  168.1744 C.ar    1  UNL1        0.0972
     33 N         138.4216  139.1248  167.7623 N.ar    1  UNL1       -0.2400
     34 C         137.9911  138.8624  166.3496 C.ar    1  UNL1        0.1282
     35 C         138.7482  139.4751  165.2088 C.ar    1  UNL1        0.1588
     36 F         138.3178  139.2127  163.7961 F       1  UNL1       -0.2027
     37 C         139.9358  140.3502  165.4808 C.ar    1  UNL1        0.0503
     38 C         140.2465  140.5214  166.9382 C.ar    1  UNL1        0.0806
     39 C         141.7671  143.3077  163.5318 C.3     1  UNL1        0.1744
     40 O         141.7951  141.8138  163.6635 O.3     1  UNL1       -0.3497
@<TRIPOS>BOND
     1    39    40    1
     2    40    25    1
     3    25    24    1
     4    24     1    1
     5     1     2    1
     6     2     3    1
     7     3     4    1
     8     4     9    1
     9     9    11    1
    10    11    12    1
    11    12    13   ar
    12    13    14   ar
    13    14    15   ar
    14    15    16   ar
    15    16    17   ar
    16    16    18    1
    17    18    19   am
    18    19    20    2
    19    19    21    1
    20    21    22    1
    21     4     5    1
    22     5     6    1
    23     4     7    1
    24     7     8    1
    25    25    26    1
    26    26    27    1
    27    27    28   ar
    28    28    29    2
    29    28    30   ar
    30    30    31   ar
    31    31    32   ar
    32    32    33   ar
    33    33    34   ar
    34    34    35   ar
    35    35    36    1
    36    35    37   ar
    37    37    38   ar
    38    37    25    1
    39     6     1    1
    40    38    27   ar
    41     8     1    1
    42    38    32   ar
    43    17    12   ar
    44    22    15    1
    45     9    10    1
    46    18    23    1
