@<TRIPOS>MOLECULE
*****
 39 44 0 0 0
SMALL
GASTEIGER

@<TRIPOS>ATOM
      1 C         141.0700  144.9159  159.6870 C.ar    1  UNL1        0.1095
      2 C         141.8305  143.6315  159.8353 C.ar    1  UNL1        0.0078
      3 C         141.7758  142.8724  161.1278 C.ar    1  UNL1        0.0104
      4 C         140.9606  143.3977  162.2722 C.ar    1  UNL1        0.0642
      5 C         140.9059  142.6386  163.5648 C.ar    1  UNL1        0.0174
      6 C         140.0907  143.1639  164.7091 C.ar    1  UNL1        0.0030
      7 C         139.3302  144.4483  164.5608 C.ar    1  UNL1        0.0191
      8 C         139.3849  145.2074  163.2683 C.ar    1  UNL1        0.0829
      9 N         140.2001  144.6821  162.1240 N.ar    1  UNL1       -0.2733
     10 C         140.2548  145.4412  160.8313 C.ar    1  UNL1        0.2691
     11 O         139.4943  146.7255  160.6830 O.2     1  UNL1       -0.2665
     12 O         142.4289  146.2327  157.9067 O.2     1  UNL1       -0.2700
     13 C         141.1247  145.6750  158.3943 C.2     1  UNL1        0.2505
     14 N         139.8751  145.8763  157.5894 N.am    1  UNL1       -0.3000
     15 H         139.0190  145.5102  157.9094 H       1  UNL1        0.1498
     16 C         139.9297  146.6353  156.2968 C.3     1  UNL1        0.0986
     17 C         140.6659  146.0634  155.1217 C.3     1  UNL1        0.0220
     18 C         140.7206  146.8224  153.8291 C.3     1  UNL1        0.0019
     19 C         140.0390  148.1535  153.7116 C.3     1  UNL1        0.0026
     20 C         139.3028  148.7255  154.8867 C.3     1  UNL1        0.0309
     21 C         139.2482  147.9663  156.1793 C.3     1  UNL1        0.1283
     22 O         138.5120  148.5383  157.3544 O.3     1  UNL1       -0.3828
     23 H         138.1327  149.3973  157.1114 H       1  UNL1        0.2104
     24 C         142.5363  141.5880  161.2761 C.3     1  UNL1        0.1007
     25 N         142.3672  140.4950  160.2628 N.3     1  UNL1       -0.2659
     26 C         143.3862  140.3149  159.1767 C.3     1  UNL1        0.0941
     27 C         143.2171  139.2220  158.1634 C.3     1  UNL1        0.1095
     28 N         142.0292  138.3090  158.2361 N.pl3   1  UNL1       -0.2904
     29 C         141.0102  138.4891  159.3221 C.3     1  UNL1        0.1095
     30 C         141.1793  139.5821  160.3355 C.3     1  UNL1        0.0941
     31 C         141.8601  137.2161  157.2228 C.ar    1  UNL1        0.1324
     32 C         142.8654  136.1057  157.1426 C.ar    1  UNL1        0.0424
     33 C         142.6963  135.0127  156.1292 C.ar    1  UNL1        0.0529
     34 S         143.5184  133.7975  155.8171 S.2     1  UNL1       -0.0644
     35 C         142.8521  133.0639  154.6911 C.ar    1  UNL1        0.1345
     36 N         141.6182  133.8256  154.3074 N.ar    1  UNL1       -0.2347
     37 C         141.5219  135.0301  155.1962 C.ar    1  UNL1        0.1071
     38 C         140.5166  136.1405  155.2765 C.ar    1  UNL1        0.1198
     39 N         140.6857  137.2335  156.2898 N.ar    1  UNL1       -0.2276
@<TRIPOS>BOND
     1    12    13    2
     2    13    14   am
     3    16    14    1
     4    16    17    1
     5    17    18    1
     6    18    19    1
     7    19    20    1
     8    20    21    1
     9    21    22    1
    10    13     1    1
    11     1     2   ar
    12     2     3   ar
    13     3    24    1
    14    24    25    1
    15    25    26    1
    16    26    27    1
    17    27    28    1
    18    28    31    1
    19    31    32   ar
    20    32    33   ar
    21    33    34   ar
    22    34    35   ar
    23    35    36   ar
    24    36    37   ar
    25    37    38   ar
    26    38    39   ar
    27    28    29    1
    28    29    30    1
    29     3     4   ar
    30     4     5   ar
    31     5     6   ar
    32     6     7   ar
    33     7     8   ar
    34     8     9   ar
    35     9    10   ar
    36    10    11    2
    37    21    16    1
    38    10     1   ar
    39    30    25    1
    40     9     4   ar
    41    39    31   ar
    42    37    33   ar
    43    14    15    1
    44    22    23    1
@<TRIPOS>MOLECULE
*****
 39 44 0 0 0
SMALL
GASTEIGER

@<TRIPOS>ATOM
      1 C         141.4177  137.3049  156.4727 C.ar    1  UNL1        0.1095
      2 C         141.5501  138.4550  157.4264 C.ar    1  UNL1        0.0078
      3 C         140.5189  139.5443  157.4356 C.ar    1  UNL1        0.0104
      4 C         139.3552  139.4834  156.4910 C.ar    1  UNL1        0.0642
      5 C         138.3241  140.5727  156.5002 C.ar    1  UNL1        0.0174
      6 C         137.1604  140.5118  155.5556 C.ar    1  UNL1        0.0030
      7 C         137.0280  139.3617  154.6019 C.ar    1  UNL1        0.0191
      8 C         138.0592  138.2724  154.5927 C.ar    1  UNL1        0.0829
      9 N         139.2228  138.3333  155.5373 N.ar    1  UNL1       -0.2733
     10 C         140.2540  137.2440  155.5281 C.ar    1  UNL1        0.2691
     11 O         140.1216  136.0938  154.5744 O.2     1  UNL1       -0.2665
     12 O         143.9030  136.5604  156.3349 O.2     1  UNL1       -0.2700
     13 C         142.4489  136.2156  156.4635 C.2     1  UNL1        0.2505
     14 N         142.0260  134.7814  156.5830 N.am    1  UNL1       -0.3000
     15 H         141.0716  134.5550  156.6674 H       1  UNL1        0.1498
     16 C         143.0571  133.6921  156.5739 C.3     1  UNL1        0.0986
     17 C         143.2545  132.8565  155.3439 C.3     1  UNL1        0.0220
     18 C         144.2857  131.7672  155.3348 C.3     1  UNL1        0.0019
     19 C         145.1195  131.5135  156.5556 C.3     1  UNL1        0.0026
     20 C         144.9221  132.3491  157.7856 C.3     1  UNL1        0.0309
     21 C         143.8909  133.4385  157.7947 C.3     1  UNL1        0.1283
     22 O         143.6935  134.2741  159.0246 O.3     1  UNL1       -0.3828
     23 H         144.3075  133.9815  159.7163 H       1  UNL1        0.2104
     24 C         140.6514  140.6944  158.3893 C.3     1  UNL1        0.1007
     25 N         140.3611  140.4968  159.8476 N.3     1  UNL1       -0.2659
     26 C         141.1521  141.2466  160.8782 C.3     1  UNL1        0.0941
     27 C         140.8618  141.0489  162.3365 C.3     1  UNL1        0.1095
     28 N         139.7804  140.1015  162.7642 N.pl3   1  UNL1       -0.2904
     29 C         138.9894  139.3517  161.7337 C.3     1  UNL1        0.1095
     30 C         139.2797  139.5493  160.2753 C.3     1  UNL1        0.0941
     31 C         139.4901  139.9038  164.2225 C.ar    1  UNL1        0.1324
     32 C         140.1426  140.7878  165.2437 C.ar    1  UNL1        0.0424
     33 C         139.8523  140.5900  166.7020 C.ar    1  UNL1        0.0529
     34 S         140.3425  141.3011  167.9283 S.2     1  UNL1       -0.0644
     35 C         139.7026  140.6590  169.1234 C.ar    1  UNL1        0.1345
     36 N         138.8169  139.5510  168.6356 N.ar    1  UNL1       -0.2347
     37 C         138.9094  139.5084  167.1391 C.ar    1  UNL1        0.1071
     38 C         138.2569  138.6244  166.1179 C.ar    1  UNL1        0.1198
     39 N         138.5472  138.8221  164.6596 N.ar    1  UNL1       -0.2276
@<TRIPOS>BOND
     1    12    13    2
     2    13    14   am
     3    16    14    1
     4    16    17    1
     5    17    18    1
     6    18    19    1
     7    19    20    1
     8    20    21    1
     9    21    22    1
    10    13     1    1
    11     1     2   ar
    12     2     3   ar
    13     3    24    1
    14    24    25    1
    15    25    26    1
    16    26    27    1
    17    27    28    1
    18    28    31    1
    19    31    32   ar
    20    32    33   ar
    21    33    34   ar
    22    34    35   ar
    23    35    36   ar
    24    36    37   ar
    25    37    38   ar
    26    38    39   ar
    27    28    29    1
    28    29    30    1
    29     3     4   ar
    30     4     5   ar
    31     5     6   ar
    32     6     7   ar
    33     7     8   ar
    34     8     9   ar
    35     9    10   ar
    36    10    11    2
    37    21    16    1
    38    10     1   ar
    39    30    25    1
    40     9     4   ar
    41    39    31   ar
    42    37    33   ar
    43    14    15    1
    44    22    23    1
@<TRIPOS>MOLECULE
*****
 39 44 0 0 0
SMALL
GASTEIGER

@<TRIPOS>ATOM
      1 C         142.4251  137.8877  157.9372 C.ar    1  UNL1        0.1095
      2 C         143.0328  137.4919  159.2502 C.ar    1  UNL1        0.0078
      3 C         143.5394  138.5454  160.1901 C.ar    1  UNL1        0.0104
      4 C         143.4383  139.9948  159.8170 C.ar    1  UNL1        0.0642
      5 C         143.9449  141.0483  160.7569 C.ar    1  UNL1        0.0174
      6 C         143.8438  142.4976  160.3837 C.ar    1  UNL1        0.0030
      7 C         143.2361  142.8934  159.0707 C.ar    1  UNL1        0.0191
      8 C         142.7295  141.8399  158.1308 C.ar    1  UNL1        0.0829
      9 N         142.8306  140.3906  158.5039 N.ar    1  UNL1       -0.2733
     10 C         142.3240  139.3370  157.5640 C.ar    1  UNL1        0.2691
     11 O         141.7163  139.7327  156.2510 O.2     1  UNL1       -0.2665
     12 O         140.4780  136.8318  156.5793 O.2     1  UNL1       -0.2700
     13 C         141.9185  136.8341  156.9973 C.2     1  UNL1        0.2505
     14 N         142.8525  135.7827  156.4754 N.am    1  UNL1       -0.3000
     15 H         143.7980  135.7842  156.7498 H       1  UNL1        0.1498
     16 C         142.3460  134.7292  155.5356 C.3     1  UNL1        0.0986
     17 C         141.9491  135.0996  154.1372 C.3     1  UNL1        0.0220
     18 C         141.4426  134.0460  153.1974 C.3     1  UNL1        0.0019
     19 C         141.3329  132.6220  153.6558 C.3     1  UNL1        0.0026
     20 C         141.7297  132.2516  155.0542 C.3     1  UNL1        0.0309
     21 C         142.2363  133.3052  155.9940 C.3     1  UNL1        0.1283
     22 O         142.6331  132.9348  157.3924 O.3     1  UNL1       -0.3828
     23 H         142.5018  131.9829  157.5243 H       1  UNL1        0.2104
     24 C         144.1471  138.1496  161.5031 C.3     1  UNL1        0.1007
     25 N         143.4581  138.5072  162.7866 N.3     1  UNL1       -0.2659
     26 C         144.1946  139.2736  163.8450 C.3     1  UNL1        0.0941
     27 C         143.5056  139.6312  165.1285 C.3     1  UNL1        0.1095
     28 N         142.0801  139.2223  165.3536 N.pl3   1  UNL1       -0.2904
     29 C         141.3436  138.4559  164.2953 C.3     1  UNL1        0.1095
     30 C         142.0326  138.0983  163.0118 C.3     1  UNL1        0.0941
     31 C         141.3910  139.5799  166.6371 C.ar    1  UNL1        0.1324
     32 C         142.1984  139.9923  167.8322 C.ar    1  UNL1        0.0424
     33 C         141.5093  140.3499  169.1157 C.ar    1  UNL1        0.0529
     34 S         142.0366  140.7896  170.4492 S.2     1  UNL1       -0.0644
     35 C         140.8662  141.0065  171.3619 C.ar    1  UNL1        0.1345
     36 N         139.6154  140.7008  170.5924 N.ar    1  UNL1       -0.2347
     37 C         140.0129  140.2950  169.2041 C.ar    1  UNL1        0.1071
     38 C         139.2056  139.8825  168.0091 C.ar    1  UNL1        0.1198
     39 N         139.8946  139.5250  166.7256 N.ar    1  UNL1       -0.2276
@<TRIPOS>BOND
     1    12    13    2
     2    13    14   am
     3    16    14    1
     4    16    17    1
     5    17    18    1
     6    18    19    1
     7    19    20    1
     8    20    21    1
     9    21    22    1
    10    13     1    1
    11     1     2   ar
    12     2     3   ar
    13     3    24    1
    14    24    25    1
    15    25    26    1
    16    26    27    1
    17    27    28    1
    18    28    31    1
    19    31    32   ar
    20    32    33   ar
    21    33    34   ar
    22    34    35   ar
    23    35    36   ar
    24    36    37   ar
    25    37    38   ar
    26    38    39   ar
    27    28    29    1
    28    29    30    1
    29     3     4   ar
    30     4     5   ar
    31     5     6   ar
    32     6     7   ar
    33     7     8   ar
    34     8     9   ar
    35     9    10   ar
    36    10    11    2
    37    21    16    1
    38    10     1   ar
    39    30    25    1
    40     9     4   ar
    41    39    31   ar
    42    37    33   ar
    43    14    15    1
    44    22    23    1
@<TRIPOS>MOLECULE
*****
 39 44 0 0 0
SMALL
GASTEIGER

@<TRIPOS>ATOM
      1 C         142.1369  144.0145  161.5755 C.ar    1  UNL1        0.1095
      2 C         143.1161  143.1484  160.8400 C.ar    1  UNL1        0.0078
      3 C         143.1841  143.1981  159.3424 C.ar    1  UNL1        0.0104
      4 C         142.2728  144.1140  158.5802 C.ar    1  UNL1        0.0642
      5 C         142.3408  144.1637  157.0826 C.ar    1  UNL1        0.0174
      6 C         141.4296  145.0795  156.3205 C.ar    1  UNL1        0.0030
      7 C         140.4503  145.9456  157.0560 C.ar    1  UNL1        0.0191
      8 C         140.3824  145.8959  158.5536 C.ar    1  UNL1        0.0829
      9 N         141.2936  144.9801  159.3157 N.ar    1  UNL1       -0.2733
     10 C         141.2256  144.9303  160.8134 C.ar    1  UNL1        0.2691
     11 O         140.2464  145.7964  161.5489 O.2     1  UNL1       -0.2665
     12 O         142.2074  145.2264  163.8726 O.2     1  UNL1       -0.2700
     13 C         142.0689  143.9647  163.0732 C.2     1  UNL1        0.2505
     14 N         141.8625  142.6533  163.7714 N.am    1  UNL1       -0.3000
     15 H         141.7716  141.8252  163.2467 H       1  UNL1        0.1498
     16 C         141.7945  142.6035  165.2690 C.3     1  UNL1        0.0986
     17 C         143.0259  142.2886  166.0656 C.3     1  UNL1        0.0220
     18 C         142.9579  142.2388  167.5632 C.3     1  UNL1        0.0019
     19 C         141.6586  142.5039  168.2643 C.3     1  UNL1        0.0026
     20 C         140.4272  142.8188  167.4677 C.3     1  UNL1        0.0309
     21 C         140.4952  142.8686  165.9700 C.3     1  UNL1        0.1283
     22 O         139.2638  143.1834  165.1734 O.3     1  UNL1       -0.3828
     23 H         138.5171  143.3271  165.7756 H       1  UNL1        0.2104
     24 C         144.1633  142.3320  158.6069 C.3     1  UNL1        0.1007
     25 N         143.7393  140.9864  158.0974 N.3     1  UNL1       -0.2659
     26 C         143.6520  140.7370  156.6208 C.3     1  UNL1        0.0941
     27 C         143.2280  139.3915  156.1112 C.3     1  UNL1        0.1095
     28 N         142.8913  138.2953  157.0782 N.pl3   1  UNL1       -0.2904
     29 C         142.9786  138.5446  158.5547 C.3     1  UNL1        0.1095
     30 C         143.4026  139.8902  159.0643 C.3     1  UNL1        0.0941
     31 C         142.4673  136.9497  156.5686 C.ar    1  UNL1        0.1324
     32 C         143.1403  135.7092  157.0767 C.ar    1  UNL1        0.0424
     33 C         142.7162  134.3636  156.5671 C.ar    1  UNL1        0.0529
     34 S         143.1919  132.9761  156.8808 S.2     1  UNL1       -0.0644
     35 C         142.3889  132.0135  156.0570 C.ar    1  UNL1        0.1345
     36 N         141.4170  132.8061  155.2342 N.ar    1  UNL1       -0.2347
     37 C         141.6193  134.2586  155.5494 C.ar    1  UNL1        0.1071
     38 C         140.9464  135.4991  155.0413 C.ar    1  UNL1        0.1198
     39 N         141.3703  136.8447  155.5509 N.ar    1  UNL1       -0.2276
@<TRIPOS>BOND
     1    12    13    2
     2    13    14   am
     3    16    14    1
     4    16    17    1
     5    17    18    1
     6    18    19    1
     7    19    20    1
     8    20    21    1
     9    21    22    1
    10    13     1    1
    11     1     2   ar
    12     2     3   ar
    13     3    24    1
    14    24    25    1
    15    25    26    1
    16    26    27    1
    17    27    28    1
    18    28    31    1
    19    31    32   ar
    20    32    33   ar
    21    33    34   ar
    22    34    35   ar
    23    35    36   ar
    24    36    37   ar
    25    37    38   ar
    26    38    39   ar
    27    28    29    1
    28    29    30    1
    29     3     4   ar
    30     4     5   ar
    31     5     6   ar
    32     6     7   ar
    33     7     8   ar
    34     8     9   ar
    35     9    10   ar
    36    10    11    2
    37    21    16    1
    38    10     1   ar
    39    30    25    1
    40     9     4   ar
    41    39    31   ar
    42    37    33   ar
    43    14    15    1
    44    22    23    1
@<TRIPOS>MOLECULE
*****
 39 44 0 0 0
SMALL
GASTEIGER

@<TRIPOS>ATOM
      1 C         140.2743  141.7352  159.9471 C.ar    1  UNL1        0.1095
      2 C         140.4416  140.9596  158.6742 C.ar    1  UNL1        0.0078
      3 C         140.5478  141.6822  157.3640 C.ar    1  UNL1        0.0104
      4 C         140.4866  143.1806  157.3268 C.ar    1  UNL1        0.0642
      5 C         140.5927  143.9032  156.0167 C.ar    1  UNL1        0.0174
      6 C         140.5316  145.4014  155.9795 C.ar    1  UNL1        0.0030
      7 C         140.3643  146.1771  157.2524 C.ar    1  UNL1        0.0191
      8 C         140.2582  145.4544  158.5626 C.ar    1  UNL1        0.0829
      9 N         140.3193  143.9562  158.5998 N.ar    1  UNL1       -0.2733
     10 C         140.2132  143.2335  159.9099 C.ar    1  UNL1        0.2691
     11 O         140.0459  144.0091  161.1829 O.2     1  UNL1       -0.2665
     12 O         141.3751  140.8735  162.1371 O.2     1  UNL1       -0.2700
     13 C         140.1682  141.0125  161.2573 C.2     1  UNL1        0.2505
     14 N         138.8551  140.4289  161.6877 N.am    1  UNL1       -0.3000
     15 H         138.0630  140.5201  161.1102 H       1  UNL1        0.1498
     16 C         138.7490  139.7062  162.9978 C.3     1  UNL1        0.0986
     17 C         138.3050  140.4427  164.2268 C.3     1  UNL1        0.0220
     18 C         138.1988  139.7200  165.5369 C.3     1  UNL1        0.0019
     19 C         138.5366  138.2608  165.6180 C.3     1  UNL1        0.0026
     20 C         138.9806  137.5243  164.3890 C.3     1  UNL1        0.0309
     21 C         139.0868  138.2470  163.0789 C.3     1  UNL1        0.1283
     22 O         139.5308  137.5105  161.8499 O.3     1  UNL1       -0.3828
     23 H         139.7080  136.5837  162.0747 H       1  UNL1        0.2104
     24 C         140.7150  140.9066  156.0911 C.3     1  UNL1        0.1007
     25 N         141.0974  139.4570  156.1408 N.3     1  UNL1       -0.2659
     26 C         142.5414  139.0656  156.2507 C.3     1  UNL1        0.0941
     27 C         142.9238  137.6160  156.3004 C.3     1  UNL1        0.1095
     28 N         141.8623  136.5579  156.2402 N.pl3   1  UNL1       -0.2904
     29 C         140.4185  136.9492  156.1304 C.3     1  UNL1        0.1095
     30 C         140.0360  138.3988  156.0806 C.3     1  UNL1        0.0941
     31 C         142.2448  135.1083  156.2900 C.ar    1  UNL1        0.1324
     32 C         143.4199  134.6705  157.1130 C.ar    1  UNL1        0.0424
     33 C         143.8023  133.2208  157.1627 C.ar    1  UNL1        0.0529
     34 S         144.9025  132.4972  157.8808 S.2     1  UNL1       -0.0644
     35 C         144.7897  131.0381  157.5514 C.ar    1  UNL1        0.1345
     36 N         143.6199  130.8601  156.6296 N.ar    1  UNL1       -0.2347
     37 C         143.0096  132.2091  156.3894 C.ar    1  UNL1        0.1071
     38 C         141.8344  132.6470  155.5664 C.ar    1  UNL1        0.1198
     39 N         141.4520  134.0965  155.5167 N.ar    1  UNL1       -0.2276
@<TRIPOS>BOND
     1    12    13    2
     2    13    14   am
     3    16    14    1
     4    16    17    1
     5    17    18    1
     6    18    19    1
     7    19    20    1
     8    20    21    1
     9    21    22    1
    10    13     1    1
    11     1     2   ar
    12     2     3   ar
    13     3    24    1
    14    24    25    1
    15    25    26    1
    16    26    27    1
    17    27    28    1
    18    28    31    1
    19    31    32   ar
    20    32    33   ar
    21    33    34   ar
    22    34    35   ar
    23    35    36   ar
    24    36    37   ar
    25    37    38   ar
    26    38    39   ar
    27    28    29    1
    28    29    30    1
    29     3     4   ar
    30     4     5   ar
    31     5     6   ar
    32     6     7   ar
    33     7     8   ar
    34     8     9   ar
    35     9    10   ar
    36    10    11    2
    37    21    16    1
    38    10     1   ar
    39    30    25    1
    40     9     4   ar
    41    39    31   ar
    42    37    33   ar
    43    14    15    1
    44    22    23    1
@<TRIPOS>MOLECULE
*****
 39 44 0 0 0
SMALL
GASTEIGER

@<TRIPOS>ATOM
      1 C         139.0535  140.0295  158.6626 C.ar    1  UNL1        0.1095
      2 C         138.3984  139.3963  159.8542 C.ar    1  UNL1        0.0078
      3 C         139.2357  138.7218  160.9001 C.ar    1  UNL1        0.0104
      4 C         140.7281  138.6804  160.7544 C.ar    1  UNL1        0.0642
      5 C         141.5653  138.0059  161.8003 C.ar    1  UNL1        0.0174
      6 C         143.0576  137.9647  161.6546 C.ar    1  UNL1        0.0030
      7 C         143.7127  138.5979  160.4630 C.ar    1  UNL1        0.0191
      8 C         142.8754  139.2724  159.4171 C.ar    1  UNL1        0.0829
      9 N         141.3831  139.3137  159.5628 N.ar    1  UNL1       -0.2733
     10 C         140.5458  139.9882  158.5169 C.ar    1  UNL1        0.2691
     11 O         141.2008  140.6215  157.3253 O.2     1  UNL1       -0.2665
     12 O         137.9173  142.1699  157.7256 O.2     1  UNL1       -0.2700
     13 C         138.2161  140.7041  157.6166 C.2     1  UNL1        0.2505
     14 N         137.6776  139.9127  156.4618 N.am    1  UNL1       -0.3000
     15 H         137.8738  138.9506  156.3902 H       1  UNL1        0.1498
     16 C         136.8403  140.5871  155.4158 C.3     1  UNL1        0.0986
     17 C         137.4937  141.2027  154.2141 C.3     1  UNL1        0.0220
     18 C         136.6564  141.8771  153.1682 C.3     1  UNL1        0.0019
     19 C         135.1656  141.9361  153.3240 C.3     1  UNL1        0.0026
     20 C         134.5123  141.3205  154.5257 C.3     1  UNL1        0.0309
     21 C         135.3497  140.6460  155.5717 C.3     1  UNL1        0.1283
     22 O         134.6963  140.0305  156.7734 O.3     1  UNL1       -0.3828
     23 H         133.7360  140.1560  156.7192 H       1  UNL1        0.2104
     24 C         138.5806  138.0885  162.0917 C.3     1  UNL1        0.1007
     25 N         138.8618  138.6124  163.4688 N.3     1  UNL1       -0.2659
     26 C         138.9803  137.6619  164.6232 C.3     1  UNL1        0.0941
     27 C         139.2615  138.1858  166.0003 C.3     1  UNL1        0.1095
     28 N         139.4242  139.6602  166.2231 N.pl3   1  UNL1       -0.2904
     29 C         139.3058  140.6107  165.0688 C.3     1  UNL1        0.1095
     30 C         139.0246  140.0868  163.6916 C.3     1  UNL1        0.0941
     31 C         139.7054  140.1841  167.6001 C.ar    1  UNL1        0.1324
     32 C         140.8898  141.0735  167.8368 C.ar    1  UNL1        0.0424
     33 C         141.1710  141.5974  169.2140 C.ar    1  UNL1        0.0529
     34 S         142.2548  142.4865  169.7477 S.2     1  UNL1       -0.0644
     35 C         142.0215  142.6704  171.2180 C.ar    1  UNL1        0.1345
     36 N         140.7934  141.8949  171.5930 N.ar    1  UNL1       -0.2347
     37 C         140.2678  141.2318  170.3544 C.ar    1  UNL1        0.1071
     38 C         139.0834  140.3423  170.1177 C.ar    1  UNL1        0.1198
     39 N         138.8022  139.8185  168.7406 N.ar    1  UNL1       -0.2276
@<TRIPOS>BOND
     1    12    13    2
     2    13    14   am
     3    16    14    1
     4    16    17    1
     5    17    18    1
     6    18    19    1
     7    19    20    1
     8    20    21    1
     9    21    22    1
    10    13     1    1
    11     1     2   ar
    12     2     3   ar
    13     3    24    1
    14    24    25    1
    15    25    26    1
    16    26    27    1
    17    27    28    1
    18    28    31    1
    19    31    32   ar
    20    32    33   ar
    21    33    34   ar
    22    34    35   ar
    23    35    36   ar
    24    36    37   ar
    25    37    38   ar
    26    38    39   ar
    27    28    29    1
    28    29    30    1
    29     3     4   ar
    30     4     5   ar
    31     5     6   ar
    32     6     7   ar
    33     7     8   ar
    34     8     9   ar
    35     9    10   ar
    36    10    11    2
    37    21    16    1
    38    10     1   ar
    39    30    25    1
    40     9     4   ar
    41    39    31   ar
    42    37    33   ar
    43    14    15    1
    44    22    23    1
@<TRIPOS>MOLECULE
*****
 39 44 0 0 0
SMALL
GASTEIGER

@<TRIPOS>ATOM
      1 C         144.2262  141.3733  158.3115 C.ar    1  UNL1        0.1095
      2 C         143.2295  140.5202  157.5842 C.ar    1  UNL1        0.0078
      3 C         143.3359  140.3437  156.0985 C.ar    1  UNL1        0.0104
      4 C         144.4391  141.0203  155.3399 C.ar    1  UNL1        0.0642
      5 C         144.5455  140.8438  153.8542 C.ar    1  UNL1        0.0174
      6 C         145.6486  141.5204  153.0957 C.ar    1  UNL1        0.0030
      7 C         146.6453  142.3734  153.8229 C.ar    1  UNL1        0.0191
      8 C         146.5389  142.5499  155.3087 C.ar    1  UNL1        0.0829
      9 N         145.4358  141.8734  156.0672 N.ar    1  UNL1       -0.2733
     10 C         145.3293  142.0498  157.5530 C.ar    1  UNL1        0.2691
     11 O         146.3260  142.9028  158.2803 O.2     1  UNL1       -0.2665
     12 O         143.4790  140.4833  160.6352 O.2     1  UNL1       -0.2700
     13 C         144.1197  141.5497  159.7973 C.2     1  UNL1        0.2505
     14 N         144.6540  142.7926  160.4451 N.am    1  UNL1       -0.3000
     15 H         145.0746  143.4926  159.8951 H       1  UNL1        0.1498
     16 C         144.5476  142.9691  161.9309 C.3     1  UNL1        0.0986
     17 C         145.3579  142.1029  162.8490 C.3     1  UNL1        0.0220
     18 C         145.2515  142.2794  164.3348 C.3     1  UNL1        0.0019
     19 C         144.3347  143.3222  164.9024 C.3     1  UNL1        0.0026
     20 C         143.5244  144.1884  163.9843 C.3     1  UNL1        0.0309
     21 C         143.6308  144.0119  162.4985 C.3     1  UNL1        0.1283
     22 O         142.8205  144.8781  161.5803 O.3     1  UNL1       -0.3828
     23 H         142.2857  145.4940  162.1052 H       1  UNL1        0.2104
     24 C         142.3392  139.4907  155.3712 C.3     1  UNL1        0.1007
     25 N         142.3874  137.9979  155.5093 N.3     1  UNL1       -0.2659
     26 C         141.1268  137.1930  155.3943 C.3     1  UNL1        0.0941
     27 C         141.1749  135.7002  155.5324 C.3     1  UNL1        0.1095
     28 N         142.4836  135.0122  155.7855 N.pl3   1  UNL1       -0.2904
     29 C         143.7441  135.8170  155.9005 C.3     1  UNL1        0.1095
     30 C         143.6960  137.3099  155.7624 C.3     1  UNL1        0.0941
     31 C         142.5317  133.5193  155.9236 C.ar    1  UNL1        0.1324
     32 C         143.5401  132.8824  156.8333 C.ar    1  UNL1        0.0424
     33 C         143.5882  131.3895  156.9713 C.ar    1  UNL1        0.0529
     34 S         144.4651  130.4846  157.7851 S.2     1  UNL1       -0.0644
     35 C         144.0468  129.0694  157.5164 C.ar    1  UNL1        0.1345
     36 N         142.9114  129.0997  156.5367 N.ar    1  UNL1       -0.2347
     37 C         142.6280  130.5336  156.1998 C.ar    1  UNL1        0.1071
     38 C         141.6196  131.1705  155.2901 C.ar    1  UNL1        0.1198
     39 N         141.5715  132.6634  155.1520 N.ar    1  UNL1       -0.2276
@<TRIPOS>BOND
     1    12    13    2
     2    13    14   am
     3    16    14    1
     4    16    17    1
     5    17    18    1
     6    18    19    1
     7    19    20    1
     8    20    21    1
     9    21    22    1
    10    13     1    1
    11     1     2   ar
    12     2     3   ar
    13     3    24    1
    14    24    25    1
    15    25    26    1
    16    26    27    1
    17    27    28    1
    18    28    31    1
    19    31    32   ar
    20    32    33   ar
    21    33    34   ar
    22    34    35   ar
    23    35    36   ar
    24    36    37   ar
    25    37    38   ar
    26    38    39   ar
    27    28    29    1
    28    29    30    1
    29     3     4   ar
    30     4     5   ar
    31     5     6   ar
    32     6     7   ar
    33     7     8   ar
    34     8     9   ar
    35     9    10   ar
    36    10    11    2
    37    21    16    1
    38    10     1   ar
    39    30    25    1
    40     9     4   ar
    41    39    31   ar
    42    37    33   ar
    43    14    15    1
    44    22    23    1
@<TRIPOS>MOLECULE
*****
 39 44 0 0 0
SMALL
GASTEIGER

@<TRIPOS>ATOM
      1 C         142.2140  142.4327  164.3275 C.ar    1  UNL1        0.1095
      2 C         143.1846  141.8105  163.3679 C.ar    1  UNL1        0.0078
      3 C         143.2132  142.2558  161.9358 C.ar    1  UNL1        0.0104
      4 C         142.2712  143.3232  161.4633 C.ar    1  UNL1        0.0642
      5 C         142.2998  143.7685  160.0312 C.ar    1  UNL1        0.0174
      6 C         141.3579  144.8359  159.5587 C.ar    1  UNL1        0.0030
      7 C         140.3873  145.4581  160.5184 C.ar    1  UNL1        0.0191
      8 C         140.3586  145.0128  161.9504 C.ar    1  UNL1        0.0829
      9 N         141.3006  143.9454  162.4229 N.ar    1  UNL1       -0.2733
     10 C         141.2720  143.5001  163.8550 C.ar    1  UNL1        0.2691
     11 O         140.3014  144.1222  164.8146 O.2     1  UNL1       -0.2665
     12 O         143.1193  142.6069  166.7565 O.2     1  UNL1       -0.2700
     13 C         142.1854  141.9873  165.7596 C.2     1  UNL1        0.2505
     14 N         141.2228  140.9224  166.1948 N.am    1  UNL1       -0.3000
     15 H         140.6098  140.5158  165.5405 H       1  UNL1        0.1498
     16 C         141.1942  140.4771  167.6269 C.3     1  UNL1        0.0986
     17 C         140.0993  140.9487  168.5372 C.3     1  UNL1        0.0220
     18 C         140.0707  140.5034  169.9693 C.3     1  UNL1        0.0019
     19 C         141.1370  139.5864  170.4910 C.3     1  UNL1        0.0026
     20 C         142.2319  139.1148  169.5807 C.3     1  UNL1        0.0309
     21 C         142.2605  139.5601  168.1486 C.3     1  UNL1        0.1283
     22 O         143.3554  139.0885  167.2382 O.3     1  UNL1       -0.3828
     23 H         143.9567  138.5073  167.7297 H       1  UNL1        0.2104
     24 C         144.1838  141.6336  160.9762 C.3     1  UNL1        0.1007
     25 N         143.7378  140.5217  160.0736 N.3     1  UNL1       -0.2659
     26 C         143.7705  140.7050  158.5852 C.3     1  UNL1        0.0941
     27 C         143.3245  139.5931  157.6826 C.3     1  UNL1        0.1095
     28 N         142.8458  138.2978  158.2684 N.pl3   1  UNL1       -0.2904
     29 C         142.8131  138.1145  159.7568 C.3     1  UNL1        0.1095
     30 C         143.2591  139.2264  160.6594 C.3     1  UNL1        0.0941
     31 C         142.3998  137.1859  157.3658 C.ar    1  UNL1        0.1324
     32 C         143.0878  135.8541  157.4201 C.ar    1  UNL1        0.0424
     33 C         142.6418  134.7422  156.5175 C.ar    1  UNL1        0.0529
     34 S         143.1252  133.3324  156.3474 S.2     1  UNL1       -0.0644
     35 C         142.2898  132.6810  155.2854 C.ar    1  UNL1        0.1345
     36 N         141.2902  133.6881  154.7992 N.ar    1  UNL1       -0.2347
     37 C         141.5077  134.9620  155.5606 C.ar    1  UNL1        0.1071
     38 C         140.8197  136.2938  155.5064 C.ar    1  UNL1        0.1198
     39 N         141.2657  137.4057  156.4090 N.ar    1  UNL1       -0.2276
@<TRIPOS>BOND
     1    12    13    2
     2    13    14   am
     3    16    14    1
     4    16    17    1
     5    17    18    1
     6    18    19    1
     7    19    20    1
     8    20    21    1
     9    21    22    1
    10    13     1    1
    11     1     2   ar
    12     2     3   ar
    13     3    24    1
    14    24    25    1
    15    25    26    1
    16    26    27    1
    17    27    28    1
    18    28    31    1
    19    31    32   ar
    20    32    33   ar
    21    33    34   ar
    22    34    35   ar
    23    35    36   ar
    24    36    37   ar
    25    37    38   ar
    26    38    39   ar
    27    28    29    1
    28    29    30    1
    29     3     4   ar
    30     4     5   ar
    31     5     6   ar
    32     6     7   ar
    33     7     8   ar
    34     8     9   ar
    35     9    10   ar
    36    10    11    2
    37    21    16    1
    38    10     1   ar
    39    30    25    1
    40     9     4   ar
    41    39    31   ar
    42    37    33   ar
    43    14    15    1
    44    22    23    1
@<TRIPOS>MOLECULE
*****
 39 44 0 0 0
SMALL
GASTEIGER

@<TRIPOS>ATOM
      1 C         141.8738  141.7899  159.4100 C.ar    1  UNL1        0.1095
      2 C         141.3181  140.9325  158.3117 C.ar    1  UNL1        0.0078
      3 C         142.1544  140.6234  157.1055 C.ar    1  UNL1        0.0104
      4 C         143.5465  141.1717  156.9974 C.ar    1  UNL1        0.0642
      5 C         144.3828  140.8627  155.7912 C.ar    1  UNL1        0.0174
      6 C         145.7747  141.4110  155.6832 C.ar    1  UNL1        0.0030
      7 C         146.3304  142.2685  156.7814 C.ar    1  UNL1        0.0191
      8 C         145.4941  142.5775  157.9876 C.ar    1  UNL1        0.0829
      9 N         144.1021  142.0292  158.0957 N.ar    1  UNL1       -0.2733
     10 C         143.2658  142.3382  159.3019 C.ar    1  UNL1        0.2691
     11 O         143.8214  143.1957  160.4001 O.2     1  UNL1       -0.2665
     12 O         140.3629  140.9885  161.3657 O.2     1  UNL1       -0.2700
     13 C         141.0374  142.0989  160.6162 C.2     1  UNL1        0.2505
     14 N         140.8757  143.5185  161.0730 N.am    1  UNL1       -0.3000
     15 H         141.3184  144.2474  160.5811 H       1  UNL1        0.1498
     16 C         140.0394  143.8276  162.2792 C.3     1  UNL1        0.0986
     17 C         140.6872  144.3495  163.5274 C.3     1  UNL1        0.0220
     18 C         139.8509  144.6586  164.7336 C.3     1  UNL1        0.0019
     19 C         138.3666  144.4458  164.6917 C.3     1  UNL1        0.0026
     20 C         137.7187  143.9239  163.4435 C.3     1  UNL1        0.0309
     21 C         138.5552  143.6148  162.2372 C.3     1  UNL1        0.1283
     22 O         137.9073  143.0930  160.9891 O.3     1  UNL1       -0.3828
     23 H         136.9508  143.0144  161.1299 H       1  UNL1        0.2104
     24 C         141.5988  139.7660  156.0073 C.3     1  UNL1        0.1007
     25 N         141.7890  138.2787  156.0479 N.3     1  UNL1       -0.2659
     26 C         142.6805  137.6646  157.0863 C.3     1  UNL1        0.0941
     27 C         142.8708  136.1773  157.1268 C.3     1  UNL1        0.1095
     28 N         142.1696  135.3040  156.1290 N.pl3   1  UNL1       -0.2904
     29 C         141.2781  135.9180  155.0906 C.3     1  UNL1        0.1095
     30 C         141.0878  137.4054  155.0500 C.3     1  UNL1        0.0941
     31 C         142.3598  133.8167  156.1695 C.ar    1  UNL1        0.1324
     32 C         143.4536  133.2230  157.0069 C.ar    1  UNL1        0.0424
     33 C         143.6439  131.7356  157.0474 C.ar    1  UNL1        0.0529
     34 S         144.6282  130.8692  157.7757 S.2     1  UNL1       -0.0644
     35 C         144.3329  129.4400  157.4290 C.ar    1  UNL1        0.1345
     36 N         143.1662  129.4232  156.4864 N.ar    1  UNL1       -0.2347
     37 C         142.7403  130.8420  156.2506 C.ar    1  UNL1        0.1071
     38 C         141.6465  131.4356  155.4133 C.ar    1  UNL1        0.1198
     39 N         141.4562  132.9229  155.3727 N.ar    1  UNL1       -0.2276
@<TRIPOS>BOND
     1    12    13    2
     2    13    14   am
     3    16    14    1
     4    16    17    1
     5    17    18    1
     6    18    19    1
     7    19    20    1
     8    20    21    1
     9    21    22    1
    10    13     1    1
    11     1     2   ar
    12     2     3   ar
    13     3    24    1
    14    24    25    1
    15    25    26    1
    16    26    27    1
    17    27    28    1
    18    28    31    1
    19    31    32   ar
    20    32    33   ar
    21    33    34   ar
    22    34    35   ar
    23    35    36   ar
    24    36    37   ar
    25    37    38   ar
    26    38    39   ar
    27    28    29    1
    28    29    30    1
    29     3     4   ar
    30     4     5   ar
    31     5     6   ar
    32     6     7   ar
    33     7     8   ar
    34     8     9   ar
    35     9    10   ar
    36    10    11    2
    37    21    16    1
    38    10     1   ar
    39    30    25    1
    40     9     4   ar
    41    39    31   ar
    42    37    33   ar
    43    14    15    1
    44    22    23    1
