@<TRIPOS>MOLECULE
*****
 33 37 0 0 0
SMALL
GASTEIGER

@<TRIPOS>ATOM
      1 C         140.3428  142.4952  167.9910 C.3     1  UNL1        0.1309
      2 C         139.8148  141.1071  168.2016 C.3     1  UNL1        0.0562
      3 C         139.3444  140.2978  167.0295 C.ar    1  UNL1       -0.0215
      4 C         138.8163  138.9097  167.2400 C.ar    1  UNL1       -0.0044
      5 C         138.3460  138.1005  166.0679 C.ar    1  UNL1       -0.0003
      6 C         138.4037  138.6793  164.6853 C.ar    1  UNL1       -0.0003
      7 C         138.9317  140.0673  164.4748 C.ar    1  UNL1       -0.0023
      8 C         139.4021  140.8766  165.6468 C.ar    1  UNL1       -0.0019
      9 C         139.9302  142.2648  165.4363 C.3     1  UNL1        0.1111
     10 C         139.4598  141.4554  164.2642 C.3     1  UNL1        0.0328
     11 C         139.5175  142.0342  162.8816 C.3     1  UNL1        0.0187
     12 C         140.0455  143.4224  162.6711 C.3     1  UNL1        0.0578
     13 C         140.5159  144.2316  163.8432 C.3     1  UNL1        0.0187
     14 C         140.4582  143.6528  165.2258 C.3     1  UNL1        0.0328
     15 O         140.4005  143.0740  166.6084 O.3     1  UNL1       -0.3561
     16 N         140.1032  144.0012  161.2884 N.3     1  UNL1       -0.2716
     17 C         139.8833  143.1182  160.0959 C.3     1  UNL1        0.0896
     18 C         139.9410  143.6970  158.7133 C.3     1  UNL1        0.0896
     19 N         140.2186  145.1588  158.5232 N.3     1  UNL1       -0.2716
     20 C         140.4385  146.0417  159.7157 C.3     1  UNL1        0.0896
     21 C         140.3809  145.4629  161.0983 C.3     1  UNL1        0.0896
     22 C         140.2763  145.7376  157.1406 C.3     1  UNL1        0.0576
     23 C         139.3992  146.8987  156.7764 C.3     1  UNL1        0.0160
     24 C         139.4569  147.4775  155.3938 C.3     1  UNL1        0.0014
     25 C         140.3917  146.8952  154.3753 C.3     1  UNL1        0.0001
     26 C         141.2687  145.7341  154.7395 C.3     1  UNL1        0.0014
     27 C         141.2110  145.1553  156.1222 C.3     1  UNL1        0.0160
     28 C         140.8132  143.3046  169.1631 C.3     1  UNL1        0.1393
     29 C         140.4376  142.8951  170.5564 C.2     1  UNL1        0.3195
     30 O         139.0501  143.1517  171.0652 O.2     1  UNL1       -0.2500
     31 O         141.4496  142.2292  171.4409 O.3     1  UNL1       -0.4484
     32 C         143.0422  140.5432  170.2698 C.3     1  UNL1        0.0513
     33 C         141.8711  140.8159  171.1665 C.3     1  UNL1        0.2086
@<TRIPOS>BOND
     1    32    33    1
     2    33    31    1
     3    31    29    1
     4    29    30    2
     5    29    28    1
     6     1    28    1
     7     1     2    1
     8     2     3    1
     9     3     4   ar
    10     4     5   ar
    11     5     6   ar
    12     6     7   ar
    13     7     8   ar
    14     8     9    1
    15     9    10    1
    16    10    11    1
    17    11    12    1
    18    12    16    1
    19    16    17    1
    20    17    18    1
    21    18    19    1
    22    19    22    1
    23    22    23    1
    24    23    24    1
    25    24    25    1
    26    25    26    1
    27    26    27    1
    28    19    20    1
    29    20    21    1
    30    12    13    1
    31    13    14    1
    32     9    15    1
    33    15     1    1
    34     8     3   ar
    35    14     9    1
    36    21    16    1
    37    27    22    1
@<TRIPOS>MOLECULE
*****
 33 37 0 0 0
SMALL
GASTEIGER

@<TRIPOS>ATOM
      1 C         141.2790  142.3170  168.1913 C.3     1  UNL1        0.1309
      2 C         141.9773  141.0029  168.3802 C.3     1  UNL1        0.0562
      3 C         142.5017  140.2544  167.1908 C.ar    1  UNL1       -0.0215
      4 C         143.2000  138.9404  167.3797 C.ar    1  UNL1       -0.0044
      5 C         143.7244  138.1920  166.1902 C.ar    1  UNL1       -0.0003
      6 C         143.5505  138.7576  164.8119 C.ar    1  UNL1       -0.0003
      7 C         142.8522  140.0716  164.6230 C.ar    1  UNL1       -0.0023
      8 C         142.3278  140.8200  165.8124 C.ar    1  UNL1       -0.0019
      9 C         141.6295  142.1341  165.6235 C.3     1  UNL1        0.1111
     10 C         142.1540  141.3856  164.4340 C.3     1  UNL1        0.0328
     11 C         141.9801  141.9512  163.0557 C.3     1  UNL1        0.0187
     12 C         141.2818  143.2653  162.8668 C.3     1  UNL1        0.0578
     13 C         140.7574  144.0137  164.0563 C.3     1  UNL1        0.0187
     14 C         140.9312  143.4481  165.4346 C.3     1  UNL1        0.0328
     15 O         141.1051  142.8825  166.8130 O.3     1  UNL1       -0.3561
     16 N         141.1079  143.8309  161.4885 N.3     1  UNL1       -0.2716
     17 C         140.5255  145.2015  161.3081 C.3     1  UNL1        0.0896
     18 C         140.3516  145.7671  159.9298 C.3     1  UNL1        0.0896
     19 N         140.7601  144.9621  158.7317 N.3     1  UNL1       -0.2716
     20 C         141.3424  143.5916  158.9121 C.3     1  UNL1        0.0896
     21 C         141.5163  143.0260  160.2905 C.3     1  UNL1        0.0896
     22 C         140.5862  145.5277  157.3534 C.3     1  UNL1        0.0576
     23 C         141.3991  144.9890  156.2136 C.3     1  UNL1        0.0160
     24 C         141.2253  145.5546  154.8352 C.3     1  UNL1        0.0014
     25 C         140.2384  146.6588  154.5967 C.3     1  UNL1        0.0001
     26 C         139.4256  147.1975  155.7364 C.3     1  UNL1        0.0014
     27 C         139.5995  146.6319  157.1148 C.3     1  UNL1        0.0160
     28 C         140.7546  143.0655  169.3808 C.3     1  UNL1        0.1393
     29 C         140.1703  142.3154  170.5410 C.2     1  UNL1        0.3195
     30 O         140.9073  142.2603  171.8463 O.2     1  UNL1       -0.2500
     31 O         138.8490  141.6205  170.3959 O.3     1  UNL1       -0.4484
     32 C         138.7808  139.8384  168.5065 C.3     1  UNL1        0.0513
     33 C         138.8001  140.1842  169.9659 C.3     1  UNL1        0.2086
@<TRIPOS>BOND
     1    32    33    1
     2    33    31    1
     3    31    29    1
     4    29    30    2
     5    29    28    1
     6     1    28    1
     7     1     2    1
     8     2     3    1
     9     3     4   ar
    10     4     5   ar
    11     5     6   ar
    12     6     7   ar
    13     7     8   ar
    14     8     9    1
    15     9    10    1
    16    10    11    1
    17    11    12    1
    18    12    16    1
    19    16    17    1
    20    17    18    1
    21    18    19    1
    22    19    22    1
    23    22    23    1
    24    23    24    1
    25    24    25    1
    26    25    26    1
    27    26    27    1
    28    19    20    1
    29    20    21    1
    30    12    13    1
    31    13    14    1
    32     9    15    1
    33    15     1    1
    34     8     3   ar
    35    14     9    1
    36    21    16    1
    37    27    22    1
@<TRIPOS>MOLECULE
*****
 33 37 0 0 0
SMALL
GASTEIGER

@<TRIPOS>ATOM
      1 C         140.6589  141.7006  168.1555 C.3     1  UNL1        0.1309
      2 C         141.5708  140.5252  168.3469 C.3     1  UNL1        0.0562
      3 C         142.2883  139.9331  167.1701 C.ar    1  UNL1       -0.0215
      4 C         143.2002  138.7576  167.3615 C.ar    1  UNL1       -0.0044
      5 C         143.9176  138.1656  166.1848 C.ar    1  UNL1       -0.0003
      6 C         143.7231  138.7489  164.8167 C.ar    1  UNL1       -0.0003
      7 C         142.8111  139.9244  164.6252 C.ar    1  UNL1       -0.0023
      8 C         142.0937  140.5164  165.8020 C.ar    1  UNL1       -0.0019
      9 C         141.1817  141.6919  165.6106 C.3     1  UNL1        0.1111
     10 C         141.8992  141.0998  164.4338 C.3     1  UNL1        0.0328
     11 C         141.7047  141.6831  163.0657 C.3     1  UNL1        0.0187
     12 C         140.7927  142.8586  162.8743 C.3     1  UNL1        0.0578
     13 C         140.0753  143.4507  164.0510 C.3     1  UNL1        0.0187
     14 C         140.2698  142.8673  165.4192 C.3     1  UNL1        0.0328
     15 O         140.4644  142.2840  166.7873 O.3     1  UNL1       -0.3561
     16 N         140.5981  143.4420  161.5062 N.3     1  UNL1       -0.2716
     17 C         140.4564  142.5371  160.3182 C.3     1  UNL1        0.0896
     18 C         140.2618  143.1205  158.9500 C.3     1  UNL1        0.0896
     19 N         140.2090  144.6087  158.7699 N.3     1  UNL1       -0.2716
     20 C         140.3508  145.5135  159.9578 C.3     1  UNL1        0.0896
     21 C         140.5453  144.9302  161.3259 C.3     1  UNL1        0.0896
     22 C         140.0145  145.1921  157.4017 C.3     1  UNL1        0.0576
     23 C         140.2069  144.3343  156.1863 C.3     1  UNL1        0.0160
     24 C         140.0123  144.9176  154.8181 C.3     1  UNL1        0.0014
     25 C         139.6254  146.3588  154.6654 C.3     1  UNL1        0.0001
     26 C         139.4330  147.2166  155.8808 C.3     1  UNL1        0.0014
     27 C         139.6275  146.6332  157.2489 C.3     1  UNL1        0.0160
     28 C         139.9414  142.2927  169.3323 C.3     1  UNL1        0.1393
     29 C         140.7157  142.7303  170.5401 C.2     1  UNL1        0.3195
     30 O         140.3499  142.2045  171.8965 O.2     1  UNL1       -0.2500
     31 O         141.8557  143.6937  170.3917 O.3     1  UNL1       -0.4484
     32 C         144.0611  142.5072  169.6998 C.3     1  UNL1        0.0513
     33 C         143.2536  143.2575  170.7171 C.3     1  UNL1        0.2086
@<TRIPOS>BOND
     1    32    33    1
     2    33    31    1
     3    31    29    1
     4    29    30    2
     5    29    28    1
     6     1    28    1
     7     1     2    1
     8     2     3    1
     9     3     4   ar
    10     4     5   ar
    11     5     6   ar
    12     6     7   ar
    13     7     8   ar
    14     8     9    1
    15     9    10    1
    16    10    11    1
    17    11    12    1
    18    12    16    1
    19    16    17    1
    20    17    18    1
    21    18    19    1
    22    19    22    1
    23    22    23    1
    24    23    24    1
    25    24    25    1
    26    25    26    1
    27    26    27    1
    28    19    20    1
    29    20    21    1
    30    12    13    1
    31    13    14    1
    32     9    15    1
    33    15     1    1
    34     8     3   ar
    35    14     9    1
    36    21    16    1
    37    27    22    1
@<TRIPOS>MOLECULE
*****
 33 37 0 0 0
SMALL
GASTEIGER

@<TRIPOS>ATOM
      1 C         139.9263  142.4208  165.3225 C.3     1  UNL1        0.1309
      2 C         139.3650  141.1117  165.7926 C.3     1  UNL1        0.0562
      3 C         139.6467  139.8552  165.0231 C.ar    1  UNL1       -0.0215
      4 C         139.0854  138.5460  165.4933 C.ar    1  UNL1       -0.0044
      5 C         139.3672  137.2897  164.7238 C.ar    1  UNL1       -0.0003
      6 C         140.2102  137.3424  163.4843 C.ar    1  UNL1       -0.0003
      7 C         140.7715  138.6516  163.0142 C.ar    1  UNL1       -0.0023
      8 C         140.4898  139.9079  163.7836 C.ar    1  UNL1       -0.0019
      9 C         141.0510  141.2172  163.3135 C.3     1  UNL1        0.1111
     10 C         141.3328  139.9607  162.5440 C.3     1  UNL1        0.0328
     11 C         142.1758  140.0134  161.3045 C.3     1  UNL1        0.0187
     12 C         142.7371  141.3227  160.8343 C.3     1  UNL1        0.0578
     13 C         142.4554  142.5791  161.6038 C.3     1  UNL1        0.0187
     14 C         141.6123  142.5263  162.8433 C.3     1  UNL1        0.0328
     15 O         140.7693  142.4735  164.0829 O.3     1  UNL1       -0.3561
     16 N         143.5801  141.3754  159.5948 N.3     1  UNL1       -0.2716
     17 C         144.5327  142.5148  159.3835 C.3     1  UNL1        0.0896
     18 C         145.3757  142.5676  158.1439 C.3     1  UNL1        0.0896
     19 N         145.2662  141.4809  157.1156 N.3     1  UNL1       -0.2716
     20 C         144.3137  140.3416  157.3270 C.3     1  UNL1        0.0896
     21 C         143.4707  140.2889  158.5665 C.3     1  UNL1        0.0896
     22 C         146.1092  141.5337  155.8761 C.3     1  UNL1        0.0576
     23 C         145.5605  141.0304  154.5739 C.3     1  UNL1        0.0160
     24 C         146.4035  141.0831  153.3343 C.3     1  UNL1        0.0014
     25 C         147.7953  141.6392  153.3970 C.3     1  UNL1        0.0001
     26 C         148.3440  142.1424  154.6991 C.3     1  UNL1        0.0014
     27 C         147.5009  142.0897  155.9387 C.3     1  UNL1        0.0160
     28 C         139.6445  143.6773  166.0919 C.3     1  UNL1        0.1393
     29 C         138.7987  144.7560  165.4829 C.2     1  UNL1        0.3195
     30 O         138.0029  145.6725  166.3642 O.2     1  UNL1       -0.2500
     31 O         138.7486  144.9181  163.9925 O.3     1  UNL1       -0.4484
     32 C         137.8567  143.1257  162.3367 C.3     1  UNL1        0.0513
     33 C         137.6163  144.3208  163.2107 C.3     1  UNL1        0.2086
@<TRIPOS>BOND
     1    32    33    1
     2    33    31    1
     3    31    29    1
     4    29    30    2
     5    29    28    1
     6     1    28    1
     7     1     2    1
     8     2     3    1
     9     3     4   ar
    10     4     5   ar
    11     5     6   ar
    12     6     7   ar
    13     7     8   ar
    14     8     9    1
    15     9    10    1
    16    10    11    1
    17    11    12    1
    18    12    16    1
    19    16    17    1
    20    17    18    1
    21    18    19    1
    22    19    22    1
    23    22    23    1
    24    23    24    1
    25    24    25    1
    26    25    26    1
    27    26    27    1
    28    19    20    1
    29    20    21    1
    30    12    13    1
    31    13    14    1
    32     9    15    1
    33    15     1    1
    34     8     3   ar
    35    14     9    1
    36    21    16    1
    37    27    22    1
@<TRIPOS>MOLECULE
*****
 33 37 0 0 0
SMALL
GASTEIGER

@<TRIPOS>ATOM
      1 C         141.8779  142.3222  164.5017 C.3     1  UNL1        0.1309
      2 C         141.0086  141.7835  165.5989 C.3     1  UNL1        0.0562
      3 C         140.2092  140.5337  165.3774 C.ar    1  UNL1       -0.0215
      4 C         139.3398  139.9950  166.4746 C.ar    1  UNL1       -0.0044
      5 C         138.5405  138.7453  166.2530 C.ar    1  UNL1       -0.0003
      6 C         138.6106  138.0342  164.9341 C.ar    1  UNL1       -0.0003
      7 C         139.4800  138.5729  163.8369 C.ar    1  UNL1       -0.0023
      8 C         140.2793  139.8226  164.0585 C.ar    1  UNL1       -0.0019
      9 C         141.1487  140.3613  162.9612 C.3     1  UNL1        0.1111
     10 C         140.3493  139.1115  162.7396 C.3     1  UNL1        0.0328
     11 C         140.4194  138.4004  161.4207 C.3     1  UNL1        0.0187
     12 C         141.2888  138.9391  160.3234 C.3     1  UNL1        0.0578
     13 C         142.0881  140.1889  160.5451 C.3     1  UNL1        0.0187
     14 C         142.0181  140.9000  161.8639 C.3     1  UNL1        0.0328
     15 O         141.9480  141.6111  163.1828 O.3     1  UNL1       -0.3561
     16 N         141.3589  138.2280  159.0046 N.3     1  UNL1       -0.2716
     17 C         142.6364  137.5703  158.5740 C.3     1  UNL1        0.0896
     18 C         142.7065  136.8592  157.2552 C.3     1  UNL1        0.0896
     19 N         141.4990  136.8059  156.3668 N.3     1  UNL1       -0.2716
     20 C         140.2215  137.4635  156.7974 C.3     1  UNL1        0.0896
     21 C         140.1514  138.1746  158.1162 C.3     1  UNL1        0.0896
     22 C         141.5690  136.0948  155.0479 C.3     1  UNL1        0.0576
     23 C         141.5211  136.8785  153.7698 C.3     1  UNL1        0.0160
     24 C         141.5911  136.1674  152.4509 C.3     1  UNL1        0.0014
     25 C         141.7091  134.6726  152.4102 C.3     1  UNL1        0.0001
     26 C         141.7570  133.8889  153.6883 C.3     1  UNL1        0.0014
     27 C         141.6870  134.6000  155.0071 C.3     1  UNL1        0.0160
     28 C         142.6773  143.5720  164.7233 C.3     1  UNL1        0.1393
     29 C         144.1760  143.5115  164.7349 C.2     1  UNL1        0.3195
     30 O         144.9411  144.0910  165.8877 O.2     1  UNL1       -0.2500
     31 O         144.9097  142.8716  163.5938 O.3     1  UNL1       -0.4484
     32 C         145.1371  140.3081  163.9497 C.3     1  UNL1        0.0513
     33 C         145.7669  141.6647  163.8358 C.3     1  UNL1        0.2086
@<TRIPOS>BOND
     1    32    33    1
     2    33    31    1
     3    31    29    1
     4    29    30    2
     5    29    28    1
     6     1    28    1
     7     1     2    1
     8     2     3    1
     9     3     4   ar
    10     4     5   ar
    11     5     6   ar
    12     6     7   ar
    13     7     8   ar
    14     8     9    1
    15     9    10    1
    16    10    11    1
    17    11    12    1
    18    12    16    1
    19    16    17    1
    20    17    18    1
    21    18    19    1
    22    19    22    1
    23    22    23    1
    24    23    24    1
    25    24    25    1
    26    25    26    1
    27    26    27    1
    28    19    20    1
    29    20    21    1
    30    12    13    1
    31    13    14    1
    32     9    15    1
    33    15     1    1
    34     8     3   ar
    35    14     9    1
    36    21    16    1
    37    27    22    1
@<TRIPOS>MOLECULE
*****
 33 37 0 0 0
SMALL
GASTEIGER

@<TRIPOS>ATOM
      1 C         140.6887  141.9600  167.6990 C.3     1  UNL1        0.1309
      2 C         139.6963  140.8679  167.9680 C.3     1  UNL1        0.0562
      3 C         139.3947  139.8506  166.9077 C.ar    1  UNL1       -0.0215
      4 C         138.4023  138.7585  167.1767 C.ar    1  UNL1       -0.0044
      5 C         138.1007  137.7413  166.1164 C.ar    1  UNL1       -0.0003
      6 C         138.7916  137.8162  164.7870 C.ar    1  UNL1       -0.0003
      7 C         139.7839  138.9083  164.5180 C.ar    1  UNL1       -0.0023
      8 C         140.0855  139.9255  165.5783 C.ar    1  UNL1       -0.0019
      9 C         141.0779  141.0177  165.3093 C.3     1  UNL1        0.1111
     10 C         140.7763  140.0004  164.2490 C.3     1  UNL1        0.0328
     11 C         141.4672  140.0753  162.9196 C.3     1  UNL1        0.0187
     12 C         142.4596  141.1675  162.6506 C.3     1  UNL1        0.0578
     13 C         142.7611  142.1847  163.7109 C.3     1  UNL1        0.0187
     14 C         142.0703  142.1098  165.0403 C.3     1  UNL1        0.0328
     15 O         141.3795  142.0349  166.3696 O.3     1  UNL1       -0.3561
     16 N         143.1504  141.2424  161.3213 N.3     1  UNL1       -0.2716
     17 C         143.0345  140.1046  160.3506 C.3     1  UNL1        0.0896
     18 C         143.7253  140.1795  159.0213 C.3     1  UNL1        0.0896
     19 N         144.5321  141.3922  158.6626 N.3     1  UNL1       -0.2716
     20 C         144.6480  142.5299  159.6332 C.3     1  UNL1        0.0896
     21 C         143.9571  142.4550  160.9626 C.3     1  UNL1        0.0896
     22 C         145.2229  141.4671  157.3332 C.3     1  UNL1        0.0576
     23 C         144.7897  140.5705  156.2114 C.3     1  UNL1        0.0160
     24 C         145.4806  140.6454  154.8820 C.3     1  UNL1        0.0014
     25 C         146.6045  141.6169  154.6746 C.3     1  UNL1        0.0001
     26 C         147.0376  142.5134  155.7964 C.3     1  UNL1        0.0014
     27 C         146.3468  142.4385  157.1258 C.3     1  UNL1        0.0160
     28 C         140.9903  142.9773  168.7593 C.3     1  UNL1        0.1393
     29 C         140.3911  142.8353  170.1270 C.2     1  UNL1        0.3195
     30 O         139.6002  143.9634  170.7202 O.2     1  UNL1       -0.2500
     31 O         140.5827  141.5651  170.9015 O.3     1  UNL1       -0.4484
     32 C         142.4359  139.8614  170.2588 C.3     1  UNL1        0.0513
     33 C         141.9615  141.0087  171.1005 C.3     1  UNL1        0.2086
@<TRIPOS>BOND
     1    32    33    1
     2    33    31    1
     3    31    29    1
     4    29    30    2
     5    29    28    1
     6     1    28    1
     7     1     2    1
     8     2     3    1
     9     3     4   ar
    10     4     5   ar
    11     5     6   ar
    12     6     7   ar
    13     7     8   ar
    14     8     9    1
    15     9    10    1
    16    10    11    1
    17    11    12    1
    18    12    16    1
    19    16    17    1
    20    17    18    1
    21    18    19    1
    22    19    22    1
    23    22    23    1
    24    23    24    1
    25    24    25    1
    26    25    26    1
    27    26    27    1
    28    19    20    1
    29    20    21    1
    30    12    13    1
    31    13    14    1
    32     9    15    1
    33    15     1    1
    34     8     3   ar
    35    14     9    1
    36    21    16    1
    37    27    22    1
@<TRIPOS>MOLECULE
*****
 33 37 0 0 0
SMALL
GASTEIGER

@<TRIPOS>ATOM
      1 C         141.9284  141.8958  165.9405 C.3     1  UNL1        0.1309
      2 C         140.8284  142.9005  166.1149 C.3     1  UNL1        0.0562
      3 C         139.8218  143.1079  165.0223 C.ar    1  UNL1       -0.0215
      4 C         138.7218  144.1126  165.1967 C.ar    1  UNL1       -0.0044
      5 C         137.7153  144.3200  164.1041 C.ar    1  UNL1       -0.0003
      6 C         137.8088  143.5226  162.8370 C.ar    1  UNL1       -0.0003
      7 C         138.9087  142.5178  162.6626 C.ar    1  UNL1       -0.0023
      8 C         139.9153  142.3105  163.7552 C.ar    1  UNL1       -0.0019
      9 C         141.0153  141.3057  163.5808 C.3     1  UNL1        0.1111
     10 C         140.0087  141.5131  162.4882 C.3     1  UNL1        0.0328
     11 C         140.1022  140.7157  161.2211 C.3     1  UNL1        0.0187
     12 C         141.2023  139.7109  161.0467 C.3     1  UNL1        0.0578
     13 C         142.2088  139.5036  162.1393 C.3     1  UNL1        0.0187
     14 C         142.1153  140.3010  163.4064 C.3     1  UNL1        0.0328
     15 O         142.0219  141.0984  164.6734 O.3     1  UNL1       -0.3561
     16 N         141.2957  138.9135  159.7796 N.3     1  UNL1       -0.2716
     17 C         140.0858  138.7440  158.9092 C.3     1  UNL1        0.0896
     18 C         140.1793  137.9466  157.6422 C.3     1  UNL1        0.0896
     19 N         141.4826  137.3187  157.2455 N.3     1  UNL1       -0.2716
     20 C         142.6924  137.4883  158.1160 C.3     1  UNL1        0.0896
     21 C         142.5989  138.2857  159.3830 C.3     1  UNL1        0.0896
     22 C         141.5761  136.5213  155.9785 C.3     1  UNL1        0.0576
     23 C         142.6343  135.4684  155.8313 C.3     1  UNL1        0.0160
     24 C         142.7277  134.6710  154.5643 C.3     1  UNL1        0.0014
     25 C         141.7630  134.9265  153.4444 C.3     1  UNL1        0.0001
     26 C         140.7049  135.9795  153.5916 C.3     1  UNL1        0.0014
     27 C         140.6114  136.7769  154.8586 C.3     1  UNL1        0.0160
     28 C         142.9350  141.6884  167.0331 C.3     1  UNL1        0.1393
     29 C         142.6043  140.8057  168.2000 C.2     1  UNL1        0.3195
     30 O         142.9242  139.3412  168.1470 O.2     1  UNL1       -0.2500
     31 O         141.9535  141.3876  169.4197 O.3     1  UNL1       -0.4484
     32 C         140.5758  143.5665  169.7428 C.3     1  UNL1        0.0513
     33 C         141.8997  142.8754  169.6036 C.3     1  UNL1        0.2086
@<TRIPOS>BOND
     1    32    33    1
     2    33    31    1
     3    31    29    1
     4    29    30    2
     5    29    28    1
     6     1    28    1
     7     1     2    1
     8     2     3    1
     9     3     4   ar
    10     4     5   ar
    11     5     6   ar
    12     6     7   ar
    13     7     8   ar
    14     8     9    1
    15     9    10    1
    16    10    11    1
    17    11    12    1
    18    12    16    1
    19    16    17    1
    20    17    18    1
    21    18    19    1
    22    19    22    1
    23    22    23    1
    24    23    24    1
    25    24    25    1
    26    25    26    1
    27    26    27    1
    28    19    20    1
    29    20    21    1
    30    12    13    1
    31    13    14    1
    32     9    15    1
    33    15     1    1
    34     8     3   ar
    35    14     9    1
    36    21    16    1
    37    27    22    1
@<TRIPOS>MOLECULE
*****
 33 37 0 0 0
SMALL
GASTEIGER

@<TRIPOS>ATOM
      1 C         140.7053  142.2885  164.6798 C.3     1  UNL1        0.1309
      2 C         140.0176  141.5441  165.7856 C.3     1  UNL1        0.0562
      3 C         139.5096  140.1524  165.5502 C.ar    1  UNL1       -0.0215
      4 C         138.8219  139.4080  166.6560 C.ar    1  UNL1       -0.0044
      5 C         138.3140  138.0164  166.4206 C.ar    1  UNL1       -0.0003
      6 C         138.4938  137.3693  165.0794 C.ar    1  UNL1       -0.0003
      7 C         139.1815  138.1137  163.9736 C.ar    1  UNL1       -0.0023
      8 C         139.6894  139.5053  164.2090 C.ar    1  UNL1       -0.0019
      9 C         140.3771  140.2498  163.1032 C.3     1  UNL1        0.1111
     10 C         139.8692  138.8581  162.8678 C.3     1  UNL1        0.0328
     11 C         140.0490  138.2110  161.5266 C.3     1  UNL1        0.0187
     12 C         140.7367  138.9555  160.4207 C.3     1  UNL1        0.0578
     13 C         141.2446  140.3471  160.6561 C.3     1  UNL1        0.0187
     14 C         141.0649  140.9942  161.9974 C.3     1  UNL1        0.0328
     15 O         140.8851  141.6414  163.3386 O.3     1  UNL1       -0.3561
     16 N         140.9165  138.3083  159.0795 N.3     1  UNL1       -0.2716
     17 C         139.7469  138.1706  158.1504 C.3     1  UNL1        0.0896
     18 C         139.9267  137.5234  156.8092 C.3     1  UNL1        0.0896
     19 N         141.2761  137.0140  156.3971 N.3     1  UNL1       -0.2716
     20 C         142.4456  137.1518  157.3262 C.3     1  UNL1        0.0896
     21 C         142.2658  137.7989  158.6674 C.3     1  UNL1        0.0896
     22 C         141.4559  136.3669  155.0559 C.3     1  UNL1        0.0576
     23 C         141.4926  134.8715  154.9435 C.3     1  UNL1        0.0160
     24 C         141.6723  134.2243  153.6023 C.3     1  UNL1        0.0014
     25 C         141.8154  135.0725  152.3734 C.3     1  UNL1        0.0001
     26 C         141.7787  136.5678  152.4858 C.3     1  UNL1        0.0014
     27 C         141.5990  137.2150  153.8270 C.3     1  UNL1        0.0160
     28 C         141.2132  143.6802  164.9152 C.3     1  UNL1        0.1393
     29 C         140.6968  144.8176  164.0848 C.2     1  UNL1        0.3195
     30 O         141.6502  145.6582  163.2884 O.2     1  UNL1       -0.2500
     31 O         139.2268  145.1143  164.0508 O.3     1  UNL1       -0.4484
     32 C         137.7993  143.2679  162.9094 C.3     1  UNL1        0.0513
     33 C         138.3935  144.6451  162.8952 C.3     1  UNL1        0.2086
@<TRIPOS>BOND
     1    32    33    1
     2    33    31    1
     3    31    29    1
     4    29    30    2
     5    29    28    1
     6     1    28    1
     7     1     2    1
     8     2     3    1
     9     3     4   ar
    10     4     5   ar
    11     5     6   ar
    12     6     7   ar
    13     7     8   ar
    14     8     9    1
    15     9    10    1
    16    10    11    1
    17    11    12    1
    18    12    16    1
    19    16    17    1
    20    17    18    1
    21    18    19    1
    22    19    22    1
    23    22    23    1
    24    23    24    1
    25    24    25    1
    26    25    26    1
    27    26    27    1
    28    19    20    1
    29    20    21    1
    30    12    13    1
    31    13    14    1
    32     9    15    1
    33    15     1    1
    34     8     3   ar
    35    14     9    1
    36    21    16    1
    37    27    22    1
@<TRIPOS>MOLECULE
*****
 33 37 0 0 0
SMALL
GASTEIGER

@<TRIPOS>ATOM
      1 C         140.8970  141.7035  166.6558 C.3     1  UNL1        0.1309
      2 C         140.3438  140.3134  166.7627 C.3     1  UNL1        0.0562
      3 C         139.8111  139.6223  165.5425 C.ar    1  UNL1       -0.0215
      4 C         139.2579  138.2322  165.6494 C.ar    1  UNL1       -0.0044
      5 C         138.7253  137.5411  164.4292 C.ar    1  UNL1       -0.0003
      6 C         138.7459  138.2402  163.1023 C.ar    1  UNL1       -0.0003
      7 C         139.2992  139.6303  162.9954 C.ar    1  UNL1       -0.0023
      8 C         139.8318  140.3213  164.2155 C.ar    1  UNL1       -0.0019
      9 C         140.3850  141.7115  164.1087 C.3     1  UNL1        0.1111
     10 C         139.8524  141.0204  162.8885 C.3     1  UNL1        0.0328
     11 C         139.8730  141.7195  161.5615 C.3     1  UNL1        0.0187
     12 C         140.4263  143.1097  161.4547 C.3     1  UNL1        0.0578
     13 C         140.9589  143.8007  162.6748 C.3     1  UNL1        0.0187
     14 C         140.9382  143.1016  164.0018 C.3     1  UNL1        0.0328
     15 O         140.9176  142.4026  165.3288 O.3     1  UNL1       -0.3561
     16 N         140.4469  143.8087  160.1277 N.3     1  UNL1       -0.2716
     17 C         141.2736  145.0470  159.9451 C.3     1  UNL1        0.0896
     18 C         141.2943  145.7461  158.6182 C.3     1  UNL1        0.0896
     19 N         140.4882  145.2068  157.4738 N.3     1  UNL1       -0.2716
     20 C         139.6616  143.9686  157.6564 C.3     1  UNL1        0.0896
     21 C         139.6409  143.2696  158.9834 C.3     1  UNL1        0.0896
     22 C         140.5088  145.9059  156.1468 C.3     1  UNL1        0.0576
     23 C         139.5886  147.0633  155.8944 C.3     1  UNL1        0.0160
     24 C         139.6092  147.7624  154.5674 C.3     1  UNL1        0.0014
     25 C         140.5501  147.3040  153.4928 C.3     1  UNL1        0.0001
     26 C         141.4703  146.1467  153.7452 C.3     1  UNL1        0.0014
     27 C         141.4497  145.4476  155.0722 C.3     1  UNL1        0.0160
     28 C         141.4296  142.3947  167.8760 C.3     1  UNL1        0.1393
     29 C         140.5283  142.6482  169.0478 C.2     1  UNL1        0.3195
     30 O         140.0604  144.0417  169.3464 O.2     1  UNL1       -0.2500
     31 O         140.0949  141.5083  169.9211 O.3     1  UNL1       -0.4484
     32 C         141.6437  139.4310  170.1113 C.3     1  UNL1        0.0513
     33 C         141.1165  140.7147  170.6805 C.3     1  UNL1        0.2086
@<TRIPOS>BOND
     1    32    33    1
     2    33    31    1
     3    31    29    1
     4    29    30    2
     5    29    28    1
     6     1    28    1
     7     1     2    1
     8     2     3    1
     9     3     4   ar
    10     4     5   ar
    11     5     6   ar
    12     6     7   ar
    13     7     8   ar
    14     8     9    1
    15     9    10    1
    16    10    11    1
    17    11    12    1
    18    12    16    1
    19    16    17    1
    20    17    18    1
    21    18    19    1
    22    19    22    1
    23    22    23    1
    24    23    24    1
    25    24    25    1
    26    25    26    1
    27    26    27    1
    28    19    20    1
    29    20    21    1
    30    12    13    1
    31    13    14    1
    32     9    15    1
    33    15     1    1
    34     8     3   ar
    35    14     9    1
    36    21    16    1
    37    27    22    1
