@<TRIPOS>MOLECULE
*****
 31 35 0 0 0
SMALL
GASTEIGER

@<TRIPOS>ATOM
      1 C         144.4219  143.0165  163.5780 C.3     1  UNL1        0.0730
      2 N         144.2023  141.6237  164.0898 N.3     1  UNL1       -0.2726
      3 C         144.6301  140.3569  163.4100 C.3     1  UNL1        0.0721
      4 C         144.2084  139.2035  164.2713 C.3     1  UNL1        0.0190
      5 C         143.5199  139.7575  165.4834 C.3     1  UNL1        0.0201
      6 C         143.2295  138.4303  166.1191 C.3     1  UNL1        0.0061
      7 C         142.8016  139.6971  166.7989 C.3     1  UNL1        0.0238
      8 C         143.5161  141.2533  165.3712 C.3     1  UNL1        0.0724
      9 C         142.1400  140.3936  167.9508 C.ar    1  UNL1       -0.0208
     10 C         140.7428  140.0213  168.3499 C.ar    1  UNL1        0.0072
     11 C         140.0811  140.7179  169.5019 C.ar    1  UNL1        0.0582
     12 CL        138.6839  140.3456  169.9010 Cl      1  UNL1       -0.0822
     13 C         140.8166  141.7867  170.2546 C.ar    1  UNL1        0.0228
     14 C         142.2138  142.1590  169.8555 C.ar    1  UNL1        0.0582
     15 CL        142.9492  143.2278  170.6083 Cl      1  UNL1       -0.0822
     16 C         142.8755  141.4624  168.7036 C.ar    1  UNL1        0.0072
     17 C         143.8834  144.1898  164.3417 C.3     1  UNL1        0.0294
     18 C         143.0040  145.1922  163.6548 C.3     1  UNL1        0.0666
     19 S         141.5125  145.0433  163.7091 S.3     1  UNL1       -0.0756
     20 C         140.0498  141.4811  164.1958 C.ar    1  UNL1        0.2029
     21 N         139.8857  142.0526  165.5730 N.ar    1  UNL1       -0.1250
     22 N         140.4137  143.4565  165.5583 N.ar    1  UNL1       -0.1220
     23 C         140.9040  143.7528  164.1720 C.ar    1  UNL1        0.1933
     24 N         140.6792  142.5320  163.3299 N.ar    1  UNL1       -0.2860
     25 C         141.0232  142.3874  161.8771 C.3     1  UNL1        0.1341
     26 C         137.5993  140.7363  162.1735 C.3     1  UNL1        0.0556
     27 C         138.5276  139.7589  162.8313 C.ar    1  UNL1        0.1001
     28 N         138.4926  138.2674  162.6751 N.ar    1  UNL1       -0.2085
     29 C         139.5973  137.6880  163.5081 C.ar    1  UNL1        0.2849
     30 O         140.3151  138.8214  164.1792 O.2     1  UNL1       -0.4283
     31 C         139.6540  140.1012  163.7609 C.ar    1  UNL1        0.1964
@<TRIPOS>BOND
     1    26    27    1
     2    27    28   ar
     3    28    29   ar
     4    29    30   ar
     5    30    31   ar
     6    31    20    1
     7    20    21   ar
     8    21    22   ar
     9    22    23   ar
    10    23    19    1
    11    19    18    1
    12    18    17    1
    13    17     1    1
    14     1     2    1
    15     2     3    1
    16     3     4    1
    17     5     4    1
    18     5     6    1
    19     6     7    1
    20     7     9    1
    21     9    10   ar
    22    10    11   ar
    23    11    12    1
    24    11    13   ar
    25    13    14   ar
    26    14    15    1
    27    14    16   ar
    28     5     8    1
    29    23    24   ar
    30    24    25    1
    31    31    27   ar
    32    24    20   ar
    33     8     2    1
    34     7     5    1
    35    16     9   ar
@<TRIPOS>MOLECULE
*****
 31 35 0 0 0
SMALL
GASTEIGER

@<TRIPOS>ATOM
      1 C         141.7761  137.9077  163.2527 C.3     1  UNL1        0.0730
      2 N         142.7426  139.0215  163.5274 N.3     1  UNL1       -0.2726
      3 C         144.1894  138.8639  163.8907 C.3     1  UNL1        0.0721
      4 C         144.7728  140.2334  164.0749 C.3     1  UNL1        0.0190
      5 C         143.6867  141.2374  163.8254 C.3     1  UNL1        0.0201
      6 C         144.5343  142.4501  164.0725 C.3     1  UNL1        0.0061
      7 C         143.0875  142.6077  163.7092 C.3     1  UNL1        0.0238
      8 C         142.4319  140.4884  163.4871 C.3     1  UNL1        0.0724
      9 C         141.9063  143.4897  163.4324 C.ar    1  UNL1       -0.0208
     10 C         140.9120  143.7747  164.5189 C.ar    1  UNL1        0.0072
     11 C         139.7308  144.6567  164.2421 C.ar    1  UNL1        0.0582
     12 CL        138.7366  144.9417  165.3285 Cl      1  UNL1       -0.0822
     13 C         139.5438  145.2538  162.8788 C.ar    1  UNL1        0.0228
     14 C         140.5380  144.9688  161.7923 C.ar    1  UNL1        0.0582
     15 CL        140.3509  145.5660  160.4291 Cl      1  UNL1       -0.0822
     16 C         141.7192  144.0868  162.0692 C.ar    1  UNL1        0.0072
     17 C         140.9817  137.3099  164.3759 C.3     1  UNL1        0.0294
     18 C         139.4983  137.5226  164.4417 C.3     1  UNL1        0.0666
     19 S         138.9493  138.8401  164.9030 S.3     1  UNL1       -0.0756
     20 C         139.3625  139.9985  168.5844 C.ar    1  UNL1        0.2029
     21 N         138.0824  139.2209  168.6671 N.ar    1  UNL1       -0.1250
     22 N         137.7718  138.6923  167.2981 N.ar    1  UNL1       -0.1220
     23 C         138.8599  139.1432  166.3693 C.ar    1  UNL1        0.1933
     24 N         139.8430  139.9505  167.1642 N.ar    1  UNL1       -0.2860
     25 C         141.0880  140.5963  166.6324 C.3     1  UNL1        0.1341
     26 C         142.2099  139.1508  169.9346 C.3     1  UNL1        0.0556
     27 C         141.3514  140.3112  170.3427 C.ar    1  UNL1        0.1001
     28 N         141.6509  141.2856  171.4430 N.ar    1  UNL1       -0.2085
     29 C         140.5272  142.2775  171.5025 C.ar    1  UNL1        0.2849
     30 O         139.5331  141.9160  170.4389 O.2     1  UNL1       -0.4283
     31 C         140.0425  140.7008  169.7221 C.ar    1  UNL1        0.1964
@<TRIPOS>BOND
     1    26    27    1
     2    27    28   ar
     3    28    29   ar
     4    29    30   ar
     5    30    31   ar
     6    31    20    1
     7    20    21   ar
     8    21    22   ar
     9    22    23   ar
    10    23    19    1
    11    19    18    1
    12    18    17    1
    13    17     1    1
    14     1     2    1
    15     2     3    1
    16     3     4    1
    17     5     4    1
    18     5     6    1
    19     6     7    1
    20     7     9    1
    21     9    10   ar
    22    10    11   ar
    23    11    12    1
    24    11    13   ar
    25    13    14   ar
    26    14    15    1
    27    14    16   ar
    28     5     8    1
    29    23    24   ar
    30    24    25    1
    31    31    27   ar
    32    24    20   ar
    33     8     2    1
    34     7     5    1
    35    16     9   ar
@<TRIPOS>MOLECULE
*****
 31 35 0 0 0
SMALL
GASTEIGER

@<TRIPOS>ATOM
      1 C         144.0903  139.5209  161.9318 C.3     1  UNL1        0.0730
      2 N         144.3106  140.7123  162.8161 N.3     1  UNL1       -0.2726
      3 C         145.5654  141.0266  163.5756 C.3     1  UNL1        0.0721
      4 C         145.3450  142.3071  164.3251 C.3     1  UNL1        0.0190
      5 C         143.9541  142.7842  164.0288 C.3     1  UNL1        0.0201
      6 C         144.0278  144.0190  164.8772 C.3     1  UNL1        0.0061
      7 C         142.7731  143.7047  164.1177 C.3     1  UNL1        0.0238
      8 C         143.3148  141.7986  163.0961 C.3     1  UNL1        0.0724
      9 C         141.3668  144.0546  163.7306 C.ar    1  UNL1       -0.0208
     10 C         140.2159  143.2886  164.3126 C.ar    1  UNL1        0.0072
     11 C         138.8097  143.6385  163.9254 C.ar    1  UNL1        0.0582
     12 CL        137.6588  142.8724  164.5074 Cl      1  UNL1       -0.0822
     13 C         138.5543  144.7545  162.9563 C.ar    1  UNL1        0.0228
     14 C         139.7051  145.5206  162.3743 C.ar    1  UNL1        0.0582
     15 CL        139.4495  146.6366  161.4051 Cl      1  UNL1       -0.0822
     16 C         141.1114  145.1707  162.7614 C.ar    1  UNL1        0.0072
     17 C         143.2000  138.4030  162.3875 C.3     1  UNL1        0.0294
     18 C         141.7245  138.4646  162.1248 C.3     1  UNL1        0.0666
     19 S         140.7744  137.7018  162.9997 S.3     1  UNL1       -0.0756
     20 C         139.5249  139.4873  166.2116 C.ar    1  UNL1        0.2029
     21 N         138.2814  139.4959  165.3727 N.ar    1  UNL1       -0.1250
     22 N         138.5981  138.8281  164.0674 N.ar    1  UNL1       -0.1220
     23 C         140.0374  138.4068  164.0996 C.ar    1  UNL1        0.1933
     24 N         140.6102  138.8142  165.4247 N.ar    1  UNL1       -0.2860
     25 C         142.0206  138.5882  165.8826 C.3     1  UNL1        0.1341
     26 C         141.5463  141.8845  167.1156 C.3     1  UNL1        0.0556
     27 C         140.5886  141.1545  168.0100 C.ar    1  UNL1        0.1001
     28 N         140.3919  141.3981  169.4769 N.ar    1  UNL1       -0.2085
     29 C         139.3412  140.4468  169.9680 C.ar    1  UNL1        0.2849
     30 O         138.8885  139.6153  168.8046 O.2     1  UNL1       -0.4283
     31 C         139.6595  140.0526  167.5945 C.ar    1  UNL1        0.1964
@<TRIPOS>BOND
     1    26    27    1
     2    27    28   ar
     3    28    29   ar
     4    29    30   ar
     5    30    31   ar
     6    31    20    1
     7    20    21   ar
     8    21    22   ar
     9    22    23   ar
    10    23    19    1
    11    19    18    1
    12    18    17    1
    13    17     1    1
    14     1     2    1
    15     2     3    1
    16     3     4    1
    17     5     4    1
    18     5     6    1
    19     6     7    1
    20     7     9    1
    21     9    10   ar
    22    10    11   ar
    23    11    12    1
    24    11    13   ar
    25    13    14   ar
    26    14    15    1
    27    14    16   ar
    28     5     8    1
    29    23    24   ar
    30    24    25    1
    31    31    27   ar
    32    24    20   ar
    33     8     2    1
    34     7     5    1
    35    16     9   ar
@<TRIPOS>MOLECULE
*****
 31 35 0 0 0
SMALL
GASTEIGER

@<TRIPOS>ATOM
      1 C         137.2032  141.7745  162.5802 C.3     1  UNL1        0.0730
      2 N         137.9067  140.5041  162.9558 N.3     1  UNL1       -0.2726
      3 C         138.0018  139.2666  162.1134 C.3     1  UNL1        0.0721
      4 C         138.7926  138.2459  162.8767 C.3     1  UNL1        0.0190
      5 C         139.1863  138.8525  164.1909 C.3     1  UNL1        0.0201
      6 C         139.9272  137.6525  164.7019 C.3     1  UNL1        0.0061
      7 C         139.8321  138.8899  165.5443 C.3     1  UNL1        0.0238
      8 C         138.6388  140.2482  164.2398 C.3     1  UNL1        0.0724
      9 C         140.1501  139.6260  166.8120 C.ar    1  UNL1       -0.0208
     10 C         139.1467  139.6690  167.9261 C.ar    1  UNL1        0.0072
     11 C         139.4646  140.4050  169.1938 C.ar    1  UNL1        0.0582
     12 CL        138.4612  140.4480  170.3080 Cl      1  UNL1       -0.0822
     13 C         140.7860  141.0981  169.3474 C.ar    1  UNL1        0.0228
     14 C         141.7894  141.0552  168.2332 C.ar    1  UNL1        0.0582
     15 CL        143.1108  141.7483  168.3869 Cl      1  UNL1       -0.0822
     16 C         141.4714  140.3191  166.9655 C.ar    1  UNL1        0.0072
     17 C         137.9868  142.9351  162.0427 C.3     1  UNL1        0.0294
     18 C         138.0273  144.2285  162.8014 C.3     1  UNL1        0.0666
     19 S         139.2273  145.1223  162.6962 S.3     1  UNL1       -0.0756
     20 C         142.6366  143.2860  162.4313 C.ar    1  UNL1        0.2029
     21 N         142.6028  144.0243  161.1260 N.ar    1  UNL1       -0.1250
     22 N         141.3216  144.8021  161.0664 N.ar    1  UNL1       -0.1220
     23 C         140.5635  144.5444  162.3348 C.ar    1  UNL1        0.1933
     24 N         141.3762  143.6074  163.1784 N.ar    1  UNL1       -0.2860
     25 C         140.9954  143.0838  164.5315 C.3     1  UNL1        0.1341
     26 C         142.4385  140.0503  162.8071 C.3     1  UNL1        0.0556
     27 C         143.6464  140.8972  163.0788 C.ar    1  UNL1        0.1001
     28 N         144.9754  140.4056  163.5710 N.ar    1  UNL1       -0.2085
     29 C         145.8877  141.5890  163.7024 C.ar    1  UNL1        0.2849
     30 O         145.1227  142.8120  163.2915 O.2     1  UNL1       -0.4283
     31 C         143.7375  142.3845  162.9061 C.ar    1  UNL1        0.1964
@<TRIPOS>BOND
     1    26    27    1
     2    27    28   ar
     3    28    29   ar
     4    29    30   ar
     5    30    31   ar
     6    31    20    1
     7    20    21   ar
     8    21    22   ar
     9    22    23   ar
    10    23    19    1
    11    19    18    1
    12    18    17    1
    13    17     1    1
    14     1     2    1
    15     2     3    1
    16     3     4    1
    17     5     4    1
    18     5     6    1
    19     6     7    1
    20     7     9    1
    21     9    10   ar
    22    10    11   ar
    23    11    12    1
    24    11    13   ar
    25    13    14   ar
    26    14    15    1
    27    14    16   ar
    28     5     8    1
    29    23    24   ar
    30    24    25    1
    31    31    27   ar
    32    24    20   ar
    33     8     2    1
    34     7     5    1
    35    16     9   ar
@<TRIPOS>MOLECULE
*****
 31 35 0 0 0
SMALL
GASTEIGER

@<TRIPOS>ATOM
      1 C         144.0480  139.3734  162.0482 C.3     1  UNL1        0.0730
      2 N         144.2820  140.5595  162.9360 N.3     1  UNL1       -0.2726
      3 C         145.5386  140.8546  163.7002 C.3     1  UNL1        0.0721
      4 C         145.3337  142.1363  164.4520 C.3     1  UNL1        0.0190
      5 C         143.9505  142.6334  164.1525 C.3     1  UNL1        0.0201
      6 C         144.0386  143.8650  165.0041 C.3     1  UNL1        0.0061
      7 C         142.7820  143.5699  164.2400 C.3     1  UNL1        0.0238
      8 C         143.3005  141.6589  163.2156 C.3     1  UNL1        0.0724
      9 C         141.3819  143.9402  163.8493 C.ar    1  UNL1       -0.0208
     10 C         141.1437  145.0802  162.9039 C.ar    1  UNL1        0.0072
     11 C         139.7437  145.4505  162.5132 C.ar    1  UNL1        0.0582
     12 CL        139.5054  146.5905  161.5678 Cl      1  UNL1       -0.0822
     13 C         138.5818  144.6809  163.0679 C.ar    1  UNL1        0.0228
     14 C         138.8200  143.5409  164.0133 C.ar    1  UNL1        0.0582
     15 CL        137.6581  142.7713  164.5680 Cl      1  UNL1       -0.0822
     16 C         140.2201  143.1706  164.4040 C.ar    1  UNL1        0.0072
     17 C         142.6614  138.8279  161.8752 C.3     1  UNL1        0.0294
     18 C         142.1059  137.8597  162.8772 C.3     1  UNL1        0.0666
     19 S         141.2408  138.3544  163.9983 S.3     1  UNL1       -0.0756
     20 C         142.1629  139.4928  167.5927 C.ar    1  UNL1        0.2029
     21 N         143.3960  138.7322  167.2042 N.ar    1  UNL1       -0.1250
     22 N         143.2007  138.2132  165.8105 N.ar    1  UNL1       -0.1220
     23 C         141.8468  138.6530  165.3376 C.ar    1  UNL1        0.1933
     24 N         141.2054  139.4439  166.4390 N.ar    1  UNL1       -0.2860
     25 C         139.8454  140.0750  166.3946 C.3     1  UNL1        0.1341
     26 C         143.3073  142.4260  168.4508 C.3     1  UNL1        0.0556
     27 C         142.4545  141.5297  169.2989 C.ar    1  UNL1        0.1001
     28 N         141.9779  141.8242  170.6904 N.ar    1  UNL1       -0.2085
     29 C         141.1573  140.6580  171.1559 C.ar    1  UNL1        0.2849
     30 O         141.1267  139.6427  170.0521 O.2     1  UNL1       -0.4283
     31 C         141.9284  140.1815  168.9045 C.ar    1  UNL1        0.1964
@<TRIPOS>BOND
     1    26    27    1
     2    27    28   ar
     3    28    29   ar
     4    29    30   ar
     5    30    31   ar
     6    31    20    1
     7    20    21   ar
     8    21    22   ar
     9    22    23   ar
    10    23    19    1
    11    19    18    1
    12    18    17    1
    13    17     1    1
    14     1     2    1
    15     2     3    1
    16     3     4    1
    17     5     4    1
    18     5     6    1
    19     6     7    1
    20     7     9    1
    21     9    10   ar
    22    10    11   ar
    23    11    12    1
    24    11    13   ar
    25    13    14   ar
    26    14    15    1
    27    14    16   ar
    28     5     8    1
    29    23    24   ar
    30    24    25    1
    31    31    27   ar
    32    24    20   ar
    33     8     2    1
    34     7     5    1
    35    16     9   ar
@<TRIPOS>MOLECULE
*****
 31 35 0 0 0
SMALL
GASTEIGER

@<TRIPOS>ATOM
      1 C         142.7058  144.8519  163.7829 C.3     1  UNL1        0.0730
      2 N         141.3080  144.5992  163.3009 N.3     1  UNL1       -0.2726
      3 C         140.4350  145.5795  162.5751 C.3     1  UNL1        0.0721
      4 C         139.1253  144.9080  162.2858 C.3     1  UNL1        0.0190
      5 C         139.1889  143.5127  162.8328 C.3     1  UNL1        0.0201
      6 C         137.8054  143.1156  162.4106 C.3     1  UNL1        0.0061
      7 C         138.6784  142.1353  163.1364 C.3     1  UNL1        0.0238
      8 C         140.5379  143.3219  163.4602 C.3     1  UNL1        0.0724
      9 C         138.8878  140.7741  163.7308 C.ar    1  UNL1       -0.0208
     10 C         139.7742  139.7816  163.0384 C.ar    1  UNL1        0.0072
     11 C         139.9835  138.4204  163.6328 C.ar    1  UNL1        0.0582
     12 CL        140.8699  137.4279  162.9404 Cl      1  UNL1       -0.0822
     13 C         139.3066  138.0518  164.9196 C.ar    1  UNL1        0.0228
     14 C         138.4203  139.0443  165.6120 C.ar    1  UNL1        0.0582
     15 CL        137.7434  138.6755  166.8988 Cl      1  UNL1       -0.0822
     16 C         138.2109  140.4054  165.0176 C.ar    1  UNL1        0.0072
     17 C         143.8726  144.5584  162.8871 C.3     1  UNL1        0.0294
     18 C         144.0920  143.1665  162.3729 C.3     1  UNL1        0.0666
     19 S         144.8948  142.1876  163.1774 S.3     1  UNL1       -0.0756
     20 C         143.1053  140.2505  166.0254 C.ar    1  UNL1        0.2029
     21 N         143.1633  139.2024  164.9538 N.ar    1  UNL1       -0.1250
     22 N         143.8407  139.8005  163.7565 N.ar    1  UNL1       -0.1220
     23 C         144.2014  141.2182  164.0881 C.ar    1  UNL1        0.1933
     24 N         143.7469  141.4964  165.4903 N.ar    1  UNL1       -0.2860
     25 C         143.9061  142.7928  166.2279 C.3     1  UNL1        0.1341
     26 C         140.4870  141.8167  167.1834 C.3     1  UNL1        0.0556
     27 C         141.3067  140.8022  167.9243 C.ar    1  UNL1        0.1001
     28 N         141.0669  140.3294  169.3275 N.ar    1  UNL1       -0.2085
     29 C         142.1222  139.3173  169.6624 C.ar    1  UNL1        0.2849
     30 O         143.0142  139.1646  168.4662 O.2     1  UNL1       -0.4283
     31 C         142.5102  140.0823  167.3920 C.ar    1  UNL1        0.1964
@<TRIPOS>BOND
     1    26    27    1
     2    27    28   ar
     3    28    29   ar
     4    29    30   ar
     5    30    31   ar
     6    31    20    1
     7    20    21   ar
     8    21    22   ar
     9    22    23   ar
    10    23    19    1
    11    19    18    1
    12    18    17    1
    13    17     1    1
    14     1     2    1
    15     2     3    1
    16     3     4    1
    17     5     4    1
    18     5     6    1
    19     6     7    1
    20     7     9    1
    21     9    10   ar
    22    10    11   ar
    23    11    12    1
    24    11    13   ar
    25    13    14   ar
    26    14    15    1
    27    14    16   ar
    28     5     8    1
    29    23    24   ar
    30    24    25    1
    31    31    27   ar
    32    24    20   ar
    33     8     2    1
    34     7     5    1
    35    16     9   ar
@<TRIPOS>MOLECULE
*****
 31 35 0 0 0
SMALL
GASTEIGER

@<TRIPOS>ATOM
      1 C         144.2252  144.3548  164.6272 C.3     1  UNL1        0.0730
      2 N         144.3775  142.8627  164.6074 N.3     1  UNL1       -0.2726
      3 C         145.4597  142.0962  163.9064 C.3     1  UNL1        0.0721
      4 C         145.2254  140.6349  164.1509 C.3     1  UNL1        0.0190
      5 C         143.9985  140.4983  165.0030 C.3     1  UNL1        0.0201
      6 C         144.0217  139.0001  165.0724 C.3     1  UNL1        0.0061
      7 C         142.9396  139.7666  165.7733 C.3     1  UNL1        0.0238
      8 C         143.4744  141.8752  165.2851 C.3     1  UNL1        0.0724
      9 C         141.7035  139.7868  166.6228 C.ar    1  UNL1       -0.0208
     10 C         140.3802  139.4014  166.0307 C.ar    1  UNL1        0.0072
     11 C         139.1441  139.4215  166.8802 C.ar    1  UNL1        0.0582
     12 CL        137.8208  139.0361  166.2881 Cl      1  UNL1       -0.0822
     13 C         139.2312  139.8271  168.3216 C.ar    1  UNL1        0.0228
     14 C         140.5545  140.2125  168.9137 C.ar    1  UNL1        0.0582
     15 CL        140.6415  140.6181  170.3552 Cl      1  UNL1       -0.0822
     16 C         141.7906  140.1924  168.0643 C.ar    1  UNL1        0.0072
     17 C         143.5214  145.0519  163.5008 C.3     1  UNL1        0.0294
     18 C         142.0267  145.1771  163.5133 C.3     1  UNL1        0.0666
     19 S         141.2311  144.7858  162.3034 S.3     1  UNL1       -0.0756
     20 C         140.7582  140.9607  161.8442 C.ar    1  UNL1        0.2029
     21 N         141.4525  141.3226  160.5647 N.ar    1  UNL1       -0.1250
     22 N         141.7141  142.7995  160.5810 N.ar    1  UNL1       -0.1220
     23 C         141.1816  143.3504  161.8706 C.ar    1  UNL1        0.1933
     24 N         140.5908  142.2140  162.6513 N.ar    1  UNL1       -0.2860
     25 C         139.9458  142.3134  164.0019 C.3     1  UNL1        0.1341
     26 C         142.6188  138.2806  161.9162 C.3     1  UNL1        0.0556
     27 C         141.1653  138.3549  162.2791 C.ar    1  UNL1        0.1001
     28 N         140.3117  137.2103  162.7389 N.ar    1  UNL1       -0.2085
     29 C         138.9290  137.7347  162.9899 C.ar    1  UNL1        0.2849
     30 O         138.9280  139.2035  162.6853 O.2     1  UNL1       -0.4283
     31 C         140.3100  139.5867  162.2460 C.ar    1  UNL1        0.1964
@<TRIPOS>BOND
     1    26    27    1
     2    27    28   ar
     3    28    29   ar
     4    29    30   ar
     5    30    31   ar
     6    31    20    1
     7    20    21   ar
     8    21    22   ar
     9    22    23   ar
    10    23    19    1
    11    19    18    1
    12    18    17    1
    13    17     1    1
    14     1     2    1
    15     2     3    1
    16     3     4    1
    17     5     4    1
    18     5     6    1
    19     6     7    1
    20     7     9    1
    21     9    10   ar
    22    10    11   ar
    23    11    12    1
    24    11    13   ar
    25    13    14   ar
    26    14    15    1
    27    14    16   ar
    28     5     8    1
    29    23    24   ar
    30    24    25    1
    31    31    27   ar
    32    24    20   ar
    33     8     2    1
    34     7     5    1
    35    16     9   ar
@<TRIPOS>MOLECULE
*****
 31 35 0 0 0
SMALL
GASTEIGER

@<TRIPOS>ATOM
      1 C         142.2208  142.4429  162.7469 C.3     1  UNL1        0.0730
      2 N         142.6737  141.2320  163.5075 N.3     1  UNL1       -0.2726
      3 C         143.4164  140.0598  162.9379 C.3     1  UNL1        0.0721
      4 C         143.6651  139.0841  164.0497 C.3     1  UNL1        0.0190
      5 C         143.0761  139.6532  165.3064 C.3     1  UNL1        0.0201
      6 C         143.4649  138.5084  166.1942 C.3     1  UNL1        0.0061
      7 C         142.7222  139.6805  166.7638 C.3     1  UNL1        0.0238
      8 C         142.4634  140.9807  164.9713 C.3     1  UNL1        0.0724
      9 C         142.0891  140.3731  167.9341 C.ar    1  UNL1       -0.0208
     10 C         140.7016  140.0003  168.3654 C.ar    1  UNL1        0.0072
     11 C         140.0685  140.6928  169.5356 C.ar    1  UNL1        0.0582
     12 CL        138.6811  140.3200  169.9670 Cl      1  UNL1       -0.0822
     13 C         140.8228  141.7582  170.2745 C.ar    1  UNL1        0.0228
     14 C         142.2103  142.1310  169.8432 C.ar    1  UNL1        0.0582
     15 CL        142.9645  143.1964  170.5822 Cl      1  UNL1       -0.0822
     16 C         142.8434  141.4384  168.6730 C.ar    1  UNL1        0.0072
     17 C         141.3228  142.2877  161.5555 C.3     1  UNL1        0.0294
     18 C         140.2264  143.2811  161.3081 C.3     1  UNL1        0.0666
     19 S         139.0230  143.3083  162.2031 S.3     1  UNL1       -0.0756
     20 C         138.7156  140.6851  165.0474 C.ar    1  UNL1        0.2029
     21 N         139.2784  141.8580  165.7943 N.ar    1  UNL1       -0.1250
     22 N         139.4620  142.9834  164.8198 N.ar    1  UNL1       -0.1220
     23 C         139.0128  142.5061  163.4705 C.ar    1  UNL1        0.1933
     24 N         138.5515  141.0857  163.6112 N.ar    1  UNL1       -0.2860
     25 C         138.0195  140.2182  162.5092 C.3     1  UNL1        0.1341
     26 C         140.0263  137.8244  164.1826 C.3     1  UNL1        0.0556
     27 C         138.9791  138.0318  165.2363 C.ar    1  UNL1        0.1001
     28 N         138.3503  136.9608  166.0774 N.ar    1  UNL1       -0.2085
     29 C         137.3593  137.6137  166.9948 C.ar    1  UNL1        0.2849
     30 O         137.3756  139.0883  166.7206 O.2     1  UNL1       -0.4283
     31 C         138.3766  139.3467  165.6338 C.ar    1  UNL1        0.1964
@<TRIPOS>BOND
     1    26    27    1
     2    27    28   ar
     3    28    29   ar
     4    29    30   ar
     5    30    31   ar
     6    31    20    1
     7    20    21   ar
     8    21    22   ar
     9    22    23   ar
    10    23    19    1
    11    19    18    1
    12    18    17    1
    13    17     1    1
    14     1     2    1
    15     2     3    1
    16     3     4    1
    17     5     4    1
    18     5     6    1
    19     6     7    1
    20     7     9    1
    21     9    10   ar
    22    10    11   ar
    23    11    12    1
    24    11    13   ar
    25    13    14   ar
    26    14    15    1
    27    14    16   ar
    28     5     8    1
    29    23    24   ar
    30    24    25    1
    31    31    27   ar
    32    24    20   ar
    33     8     2    1
    34     7     5    1
    35    16     9   ar
@<TRIPOS>MOLECULE
*****
 31 35 0 0 0
SMALL
GASTEIGER

@<TRIPOS>ATOM
      1 C         142.2548  138.2690  163.6268 C.3     1  UNL1        0.0730
      2 N         140.9574  138.3741  164.3723 N.3     1  UNL1       -0.2726
      3 C         139.6387  137.8121  163.9307 C.3     1  UNL1        0.0721
      4 C         138.6174  138.1504  164.9759 C.3     1  UNL1        0.0190
      5 C         139.3049  138.9215  166.0635 C.3     1  UNL1        0.0201
      6 C         138.0865  139.1066  166.9187 C.3     1  UNL1        0.0061
      7 C         139.4053  139.6687  167.3603 C.3     1  UNL1        0.0238
      8 C         140.7511  139.0597  165.6904 C.3     1  UNL1        0.0724
      9 C         140.2247  140.4245  168.3639 C.ar    1  UNL1       -0.0208
     10 C         141.3228  139.7288  169.1123 C.ar    1  UNL1        0.0072
     11 C         142.1422  140.4846  170.1159 C.ar    1  UNL1        0.0582
     12 CL        143.2403  139.7889  170.8643 Cl      1  UNL1       -0.0822
     13 C         141.8634  141.9362  170.3712 C.ar    1  UNL1        0.0228
     14 C         140.7652  142.6320  169.6228 C.ar    1  UNL1        0.0582
     15 CL        140.4865  144.0836  169.8781 Cl      1  UNL1       -0.0822
     16 C         139.9459  141.8761  168.6192 C.ar    1  UNL1        0.0072
     17 C         143.5328  138.7039  164.2804 C.3     1  UNL1        0.0294
     18 C         143.8034  140.1625  164.5022 C.3     1  UNL1        0.0666
     19 S         144.6289  140.9310  163.5134 S.3     1  UNL1       -0.0756
     20 C         142.8466  143.8999  161.7598 C.ar    1  UNL1        0.2029
     21 N         143.8902  144.6205  162.5609 N.ar    1  UNL1       -0.1250
     22 N         144.6848  143.5961  163.3153 N.ar    1  UNL1       -0.1220
     23 C         144.1324  142.2423  162.9804 C.ar    1  UNL1        0.1933
     24 N         142.9964  142.4300  162.0191 N.ar    1  UNL1       -0.2860
     25 C         142.1574  141.3394  161.4219 C.3     1  UNL1        0.1341
     26 C         140.0618  145.3153  162.7037 C.3     1  UNL1        0.0556
     27 C         140.5516  145.1878  161.2916 C.ar    1  UNL1        0.1001
     28 N         139.8474  145.6884  160.0655 N.ar    1  UNL1       -0.2085
     29 C         140.6921  145.3472  158.8739 C.ar    1  UNL1        0.2849
     30 O         141.9185  144.6357  159.3635 O.2     1  UNL1       -0.4283
     31 C         141.8316  144.5372  160.8577 C.ar    1  UNL1        0.1964
@<TRIPOS>BOND
     1    26    27    1
     2    27    28   ar
     3    28    29   ar
     4    29    30   ar
     5    30    31   ar
     6    31    20    1
     7    20    21   ar
     8    21    22   ar
     9    22    23   ar
    10    23    19    1
    11    19    18    1
    12    18    17    1
    13    17     1    1
    14     1     2    1
    15     2     3    1
    16     3     4    1
    17     5     4    1
    18     5     6    1
    19     6     7    1
    20     7     9    1
    21     9    10   ar
    22    10    11   ar
    23    11    12    1
    24    11    13   ar
    25    13    14   ar
    26    14    15    1
    27    14    16   ar
    28     5     8    1
    29    23    24   ar
    30    24    25    1
    31    31    27   ar
    32    24    20   ar
    33     8     2    1
    34     7     5    1
    35    16     9   ar
