@<TRIPOS>MOLECULE
*****
 30 32 0 0 0
SMALL
GASTEIGER

@<TRIPOS>ATOM
      1 C         139.3073  139.1970  165.6305 C.ar    1  UNL1        0.1666
      2 N         139.2064  137.7931  165.1122 N.ar    1  UNL1       -0.2348
      3 C         138.6994  137.5410  163.7231 C.ar    1  UNL1        0.1182
      4 C         138.2933  138.6930  162.8524 C.ar    1  UNL1        0.1048
      5 C         137.7607  138.7532  161.4514 C.ar    1  UNL1        0.1197
      6 N         137.5325  140.1944  161.1040 N.ar    1  UNL1       -0.2220
      7 C         137.9239  141.0249  162.2902 C.ar    1  UNL1        0.1838
      8 N         138.3942  140.0969  163.3708 N.ar    1  UNL1       -0.2731
      9 C         138.9011  140.3490  164.7598 C.ar    1  UNL1        0.1407
     10 N         138.8503  139.5364  168.1654 N.am    1  UNL1       -0.1884
     11 C         139.8143  139.4491  167.0196 C.2     1  UNL1        0.2884
     12 O         141.2852  139.6139  167.2627 O.2     1  UNL1       -0.2663
     13 H         137.8848  139.4283  168.0058 H       1  UNL1        0.1829
     14 O         139.3572  139.7885  169.5545 O.3     1  UNL1       -0.2661
     15 C         139.4604  141.1927  170.0719 C.3     1  UNL1        0.1734
     16 C         140.5452  143.0401  168.6021 C.3     1  UNL1        0.0053
     17 C         140.6464  142.0385  169.7142 C.3     1  UNL1        0.0615
     18 C         141.9336  141.8827  170.4683 C.3     1  UNL1        0.1397
     19 O         141.9918  142.2165  171.9296 O.3     1  UNL1       -0.3819
     20 H         141.8474  143.1682  172.0499 H       1  UNL1        0.2104
     21 N         139.0020  141.7529  165.2782 N.pl3   1  UNL1       -0.2959
     22 H         138.3087  142.1059  165.8815 H       1  UNL1        0.1537
     23 C         140.1592  142.6192  164.8773 C.ar    1  UNL1        0.0772
     24 C         141.5606  142.0951  164.9842 C.ar    1  UNL1        0.0174
     25 C         142.7178  142.9613  164.5833 C.ar    1  UNL1        0.0072
     26 C         142.4735  144.3514  164.0755 C.ar    1  UNL1        0.0324
     27 I         143.6307  145.2176  163.6746 I       1  UNL1       -0.0424
     28 C         141.0721  144.8754  163.9686 C.ar    1  UNL1        0.0367
     29 C         139.9150  144.0092  164.3695 C.ar    1  UNL1        0.1539
     30 F         138.5135  144.5332  164.2626 F       1  UNL1       -0.2028
@<TRIPOS>BOND
     1    17    16    1
     2    17    18    1
     3    18    19    1
     4    17    15    1
     5    15    14    1
     6    14    10    1
     7    10    11   am
     8    11    12    2
     9    11     1    1
    10     1     2   ar
    11     2     3   ar
    12     3     4   ar
    13     4     5   ar
    14     5     6   ar
    15     6     7   ar
    16     7     8   ar
    17     8     9   ar
    18     9    21    1
    19    21    23    1
    20    23    24   ar
    21    24    25   ar
    22    25    26   ar
    23    26    27    1
    24    26    28   ar
    25    28    29   ar
    26    29    30    1
    27     9     1   ar
    28    29    23   ar
    29     8     4   ar
    30    19    20    1
    31    10    13    1
    32    21    22    1
@<TRIPOS>MOLECULE
*****
 30 32 0 0 0
SMALL
GASTEIGER

@<TRIPOS>ATOM
      1 C         139.8983  139.9275  167.2862 C.ar    1  UNL1        0.1666
      2 N         138.9638  139.5745  168.4051 N.ar    1  UNL1       -0.2348
      3 C         139.0154  140.3388  169.6948 C.ar    1  UNL1        0.1182
      4 C         140.0015  141.4561  169.8655 C.ar    1  UNL1        0.1048
      5 C         140.2825  142.3802  171.0131 C.ar    1  UNL1        0.1197
      6 N         141.3907  143.3044  170.6034 N.ar    1  UNL1       -0.2220
      7 C         141.7946  142.9514  169.2026 C.ar    1  UNL1        0.1838
      8 N         140.9360  141.8091  168.7465 N.ar    1  UNL1       -0.2731
      9 C         140.8844  141.0448  167.4569 C.ar    1  UNL1        0.1407
     10 N         138.5568  139.0576  165.2384 N.am    1  UNL1       -0.1884
     11 C         139.8468  139.1632  165.9965 C.2     1  UNL1        0.2884
     12 O         141.0851  138.5045  165.4651 O.2     1  UNL1       -0.2663
     13 H         137.7440  139.4899  165.5873 H       1  UNL1        0.1829
     14 O         138.5052  138.2933  163.9488 O.3     1  UNL1       -0.2661
     15 C         138.7891  138.9910  162.6515 C.3     1  UNL1        0.1734
     16 C         140.7645  140.5668  162.0476 C.3     1  UNL1        0.0053
     17 C         140.2059  139.1827  162.1976 C.3     1  UNL1        0.0615
     18 C         141.0640  137.9907  161.8937 C.3     1  UNL1        0.1397
     19 O         141.1887  136.8813  162.8957 O.3     1  UNL1       -0.3819
     20 H         141.6424  137.2102  163.6874 H       1  UNL1        0.2104
     21 N         141.8190  141.3978  166.3379 N.pl3   1  UNL1       -0.2959
     22 H         142.6983  140.9597  166.2742 H       1  UNL1        0.1537
     23 C         141.4136  142.4183  165.3159 C.ar    1  UNL1        0.0772
     24 C         139.9769  142.8336  165.1996 C.ar    1  UNL1        0.0174
     25 C         139.5716  143.8541  164.1777 C.ar    1  UNL1        0.0072
     26 C         140.6030  144.4593  163.2721 C.ar    1  UNL1        0.0324
     27 I         140.1977  145.4797  162.2502 I       1  UNL1       -0.0424
     28 C         142.0397  144.0440  163.3885 C.ar    1  UNL1        0.0367
     29 C         142.4449  143.0235  164.4104 C.ar    1  UNL1        0.1539
     30 F         143.8817  142.6082  164.5267 F       1  UNL1       -0.2028
@<TRIPOS>BOND
     1    17    16    1
     2    17    18    1
     3    18    19    1
     4    17    15    1
     5    15    14    1
     6    14    10    1
     7    10    11   am
     8    11    12    2
     9    11     1    1
    10     1     2   ar
    11     2     3   ar
    12     3     4   ar
    13     4     5   ar
    14     5     6   ar
    15     6     7   ar
    16     7     8   ar
    17     8     9   ar
    18     9    21    1
    19    21    23    1
    20    23    24   ar
    21    24    25   ar
    22    25    26   ar
    23    26    27    1
    24    26    28   ar
    25    28    29   ar
    26    29    30    1
    27     9     1   ar
    28    29    23   ar
    29     8     4   ar
    30    19    20    1
    31    10    13    1
    32    21    22    1
@<TRIPOS>MOLECULE
*****
 30 32 0 0 0
SMALL
GASTEIGER

@<TRIPOS>ATOM
      1 C         139.9776  139.4812  167.1063 C.ar    1  UNL1        0.1666
      2 N         138.8274  139.5746  168.0644 N.ar    1  UNL1       -0.2348
      3 C         139.0405  140.1337  169.4400 C.ar    1  UNL1        0.1182
      4 C         140.4039  140.5995  169.8572 C.ar    1  UNL1        0.1048
      5 C         140.9141  141.1911  171.1377 C.ar    1  UNL1        0.1197
      6 N         142.3797  141.4634  170.9709 N.ar    1  UNL1       -0.2220
      7 C         142.7753  141.0400  169.5873 C.ar    1  UNL1        0.1838
      8 N         141.5542  140.5061  168.8990 N.ar    1  UNL1       -0.2731
      9 C         141.3410  139.9470  167.5236 C.ar    1  UNL1        0.1407
     10 N         138.5464  139.3075  164.9450 N.am    1  UNL1       -0.1884
     11 C         139.7645  138.9221  165.7307 C.2     1  UNL1        0.2884
     12 O         140.7695  137.9776  165.1411 O.2     1  UNL1       -0.2663
     13 H         137.8867  139.9274  165.3320 H       1  UNL1        0.1829
     14 O         138.3332  138.7484  163.5695 O.3     1  UNL1       -0.2661
     15 C         139.0019  139.3871  162.3883 C.3     1  UNL1        0.1734
     16 C         140.4242  141.5528  162.1958 C.3     1  UNL1        0.0053
     17 C         139.0861  140.8816  162.2918 C.3     1  UNL1        0.0615
     18 C         137.8323  141.7050  162.2913 C.3     1  UNL1        0.1397
     19 O         136.6689  141.3005  163.1475 O.3     1  UNL1       -0.3819
     20 H         136.3099  140.4579  162.8280 H       1  UNL1        0.2104
     21 N         142.4913  139.8536  166.5654 N.pl3   1  UNL1       -0.2959
     22 H         143.0330  139.0325  166.5251 H       1  UNL1        0.1537
     23 C         142.8163  141.0113  165.6685 C.ar    1  UNL1        0.0772
     24 C         141.9651  142.2459  165.6996 C.ar    1  UNL1        0.0174
     25 C         142.2900  143.4037  164.8028 C.ar    1  UNL1        0.0072
     26 C         143.4662  143.3266  163.8750 C.ar    1  UNL1        0.0324
     27 I         143.7912  144.4842  162.9782 I       1  UNL1       -0.0424
     28 C         144.3174  142.0919  163.8441 C.ar    1  UNL1        0.0367
     29 C         143.9924  140.9343  164.7408 C.ar    1  UNL1        0.1539
     30 F         144.8437  139.6995  164.7098 F       1  UNL1       -0.2028
@<TRIPOS>BOND
     1    17    16    1
     2    17    18    1
     3    18    19    1
     4    17    15    1
     5    15    14    1
     6    14    10    1
     7    10    11   am
     8    11    12    2
     9    11     1    1
    10     1     2   ar
    11     2     3   ar
    12     3     4   ar
    13     4     5   ar
    14     5     6   ar
    15     6     7   ar
    16     7     8   ar
    17     8     9   ar
    18     9    21    1
    19    21    23    1
    20    23    24   ar
    21    24    25   ar
    22    25    26   ar
    23    26    27    1
    24    26    28   ar
    25    28    29   ar
    26    29    30    1
    27     9     1   ar
    28    29    23   ar
    29     8     4   ar
    30    19    20    1
    31    10    13    1
    32    21    22    1
@<TRIPOS>MOLECULE
*****
 30 32 0 0 0
SMALL
GASTEIGER

@<TRIPOS>ATOM
      1 C         141.6361  141.4895  162.1486 C.ar    1  UNL1        0.1666
      2 N         141.5156  142.6609  161.2196 N.ar    1  UNL1       -0.2348
      3 C         142.1783  143.9620  161.5632 C.ar    1  UNL1        0.1182
      4 C         142.9616  144.0916  162.8359 C.ar    1  UNL1        0.1048
      5 C         143.7184  145.2391  163.4363 C.ar    1  UNL1        0.1197
      6 N         144.3066  144.7768  164.7363 N.ar    1  UNL1       -0.2220
      7 C         143.9134  143.3436  164.9395 C.ar    1  UNL1        0.1838
      8 N         143.0822  142.9200  163.7649 N.ar    1  UNL1       -0.2731
      9 C         142.4194  141.6190  163.4212 C.ar    1  UNL1        0.1407
     10 N         139.5461  139.9470  162.1982 N.am    1  UNL1       -0.1884
     11 C         140.9734  140.1884  161.8050 C.2     1  UNL1        0.2884
     12 O         141.7378  139.1289  161.0682 O.2     1  UNL1       -0.2663
     13 H         139.0444  140.6424  162.6818 H       1  UNL1        0.1829
     14 O         138.8834  138.6459  161.8547 O.3     1  UNL1       -0.2661
     15 C         138.5684  137.6559  162.9368 C.3     1  UNL1        0.1734
     16 C         138.8305  138.0090  165.4974 C.3     1  UNL1        0.0053
     17 C         139.4129  137.6048  164.1754 C.3     1  UNL1        0.0615
     18 C         140.8396  137.1495  164.0922 C.3     1  UNL1        0.1397
     19 O         141.4452  136.8197  162.7600 O.3     1  UNL1       -0.3819
     20 H         141.0041  136.0398  162.3884 H       1  UNL1        0.2104
     21 N         142.5400  140.4475  164.3502 N.pl3   1  UNL1       -0.2959
     22 H         143.0862  139.6697  164.0934 H       1  UNL1        0.1537
     23 C         141.8283  140.4610  165.6707 C.ar    1  UNL1        0.0772
     24 C         140.6000  141.3028  165.8519 C.ar    1  UNL1        0.0174
     25 C         139.8883  141.3163  167.1724 C.ar    1  UNL1        0.0072
     26 C         140.4049  140.4881  168.3113 C.ar    1  UNL1        0.0324
     27 I         139.6933  140.5016  169.6317 I       1  UNL1       -0.0424
     28 C         141.6332  139.6464  168.1299 C.ar    1  UNL1        0.0367
     29 C         142.3448  139.6329  166.8096 C.ar    1  UNL1        0.1539
     30 F         143.5731  138.7911  166.6282 F       1  UNL1       -0.2028
@<TRIPOS>BOND
     1    17    16    1
     2    17    18    1
     3    18    19    1
     4    17    15    1
     5    15    14    1
     6    14    10    1
     7    10    11   am
     8    11    12    2
     9    11     1    1
    10     1     2   ar
    11     2     3   ar
    12     3     4   ar
    13     4     5   ar
    14     5     6   ar
    15     6     7   ar
    16     7     8   ar
    17     8     9   ar
    18     9    21    1
    19    21    23    1
    20    23    24   ar
    21    24    25   ar
    22    25    26   ar
    23    26    27    1
    24    26    28   ar
    25    28    29   ar
    26    29    30    1
    27     9     1   ar
    28    29    23   ar
    29     8     4   ar
    30    19    20    1
    31    10    13    1
    32    21    22    1
@<TRIPOS>MOLECULE
*****
 30 32 0 0 0
SMALL
GASTEIGER

@<TRIPOS>ATOM
      1 C         138.8910  141.8904  163.5967 C.ar    1  UNL1        0.1666
      2 N         137.7239  141.0627  163.1466 N.ar    1  UNL1       -0.2348
      3 C         137.7758  139.5679  163.2613 C.ar    1  UNL1        0.1182
      4 C         138.9949  138.9010  163.8262 C.ar    1  UNL1        0.1048
      5 C         139.3321  137.4582  164.0602 C.ar    1  UNL1        0.1197
      6 N         140.7076  137.3944  164.6550 N.ar    1  UNL1       -0.2220
      7 C         141.2206  138.7976  164.7885 C.ar    1  UNL1        0.1838
      8 N         140.1620  139.7288  164.2763 N.ar    1  UNL1       -0.2731
      9 C         140.1100  141.2235  164.1616 C.ar    1  UNL1        0.1407
     10 N         138.4500  144.0245  162.1821 N.am    1  UNL1       -0.1884
     11 C         138.8391  143.3851  163.4820 C.2     1  UNL1        0.2884
     12 O         139.1762  144.2404  164.6672 O.2     1  UNL1       -0.2663
     13 H         138.2287  143.4631  161.4042 H       1  UNL1        0.1829
     14 O         138.3981  145.5192  162.0674 O.3     1  UNL1       -0.2661
     15 C         139.6310  146.2857  161.6898 C.3     1  UNL1        0.1734
     16 C         141.2056  145.1968  159.9333 C.3     1  UNL1        0.0053
     17 C         140.8970  145.5531  161.3574 C.3     1  UNL1        0.0615
     18 C         141.8545  145.1768  162.4490 C.3     1  UNL1        0.1397
     19 O         141.6158  145.6502  163.8522 O.3     1  UNL1       -0.3819
     20 H         141.7017  146.6157  163.8868 H       1  UNL1        0.2104
     21 N         141.2772  142.0513  164.6117 N.pl3   1  UNL1       -0.2959
     22 H         141.8456  142.5033  163.9470 H       1  UNL1        0.1537
     23 C         141.5782  142.1904  166.0747 C.ar    1  UNL1        0.0772
     24 C         140.4564  142.3153  167.0625 C.ar    1  UNL1        0.0174
     25 C         140.7575  142.4544  168.5255 C.ar    1  UNL1        0.0072
     26 C         142.1803  142.4685  169.0004 C.ar    1  UNL1        0.0324
     27 I         142.4814  142.6076  170.4633 I       1  UNL1       -0.0424
     28 C         143.3020  142.3435  168.0124 C.ar    1  UNL1        0.0367
     29 C         143.0009  142.2044  166.5495 C.ar    1  UNL1        0.1539
     30 F         144.1227  142.0794  165.5616 F       1  UNL1       -0.2028
@<TRIPOS>BOND
     1    17    16    1
     2    17    18    1
     3    18    19    1
     4    17    15    1
     5    15    14    1
     6    14    10    1
     7    10    11   am
     8    11    12    2
     9    11     1    1
    10     1     2   ar
    11     2     3   ar
    12     3     4   ar
    13     4     5   ar
    14     5     6   ar
    15     6     7   ar
    16     7     8   ar
    17     8     9   ar
    18     9    21    1
    19    21    23    1
    20    23    24   ar
    21    24    25   ar
    22    25    26   ar
    23    26    27    1
    24    26    28   ar
    25    28    29   ar
    26    29    30    1
    27     9     1   ar
    28    29    23   ar
    29     8     4   ar
    30    19    20    1
    31    10    13    1
    32    21    22    1
@<TRIPOS>MOLECULE
*****
 30 32 0 0 0
SMALL
GASTEIGER

@<TRIPOS>ATOM
      1 C         142.2110  139.2022  166.9098 C.ar    1  UNL1        0.1666
      2 N         143.1329  139.0753  168.0862 N.ar    1  UNL1       -0.2348
      3 C         142.6286  139.3648  169.4690 C.ar    1  UNL1        0.1182
      4 C         141.2024  139.7811  169.6752 C.ar    1  UNL1        0.1048
      5 C         140.4272  140.1295  170.9113 C.ar    1  UNL1        0.1197
      6 N         139.0263  140.4717  170.4987 N.ar    1  UNL1       -0.2220
      7 C         138.9356  140.3349  169.0077 C.ar    1  UNL1        0.1838
      8 N         140.2805  139.9081  168.4988 N.ar    1  UNL1       -0.2731
      9 C         140.7848  139.6186  167.1161 C.ar    1  UNL1        0.1407
     10 N         143.9277  139.6262  165.0064 N.am    1  UNL1       -0.1884
     11 C         142.7153  138.9128  165.5271 C.2     1  UNL1        0.2884
     12 O         142.0073  137.9101  164.6651 O.2     1  UNL1       -0.2663
     13 H         144.3925  140.2843  165.5721 H       1  UNL1        0.1829
     14 O         144.4320  139.3368  163.6236 O.3     1  UNL1       -0.2661
     15 C         144.5263  140.4415  162.6132 C.3     1  UNL1        0.1734
     16 C         143.7216  142.9094  162.7221 C.3     1  UNL1        0.0053
     17 C         143.4257  141.4549  162.5051 C.3     1  UNL1        0.0615
     18 C         142.0294  141.0140  162.1802 C.3     1  UNL1        0.1397
     19 O         141.6664  139.5602  162.2505 O.3     1  UNL1       -0.3819
     20 H         142.1535  139.0719  161.5685 H       1  UNL1        0.2104
     21 N         139.8629  139.7455  165.9396 N.pl3   1  UNL1       -0.2959
     22 H         139.3057  138.9814  165.6662 H       1  UNL1        0.1537
     23 C         139.7901  141.0369  165.1797 C.ar    1  UNL1        0.0772
     24 C         140.7271  142.1588  165.5161 C.ar    1  UNL1        0.0174
     25 C         140.6543  143.4501  164.7562 C.ar    1  UNL1        0.0072
     26 C         139.6445  143.6193  163.6600 C.ar    1  UNL1        0.0324
     27 I         139.5716  144.9105  162.9002 I       1  UNL1       -0.0424
     28 C         138.7075  142.4973  163.3237 C.ar    1  UNL1        0.0367
     29 C         138.7804  141.2061  164.0836 C.ar    1  UNL1        0.1539
     30 F         137.8433  140.0840  163.7472 F       1  UNL1       -0.2028
@<TRIPOS>BOND
     1    17    16    1
     2    17    18    1
     3    18    19    1
     4    17    15    1
     5    15    14    1
     6    14    10    1
     7    10    11   am
     8    11    12    2
     9    11     1    1
    10     1     2   ar
    11     2     3   ar
    12     3     4   ar
    13     4     5   ar
    14     5     6   ar
    15     6     7   ar
    16     7     8   ar
    17     8     9   ar
    18     9    21    1
    19    21    23    1
    20    23    24   ar
    21    24    25   ar
    22    25    26   ar
    23    26    27    1
    24    26    28   ar
    25    28    29   ar
    26    29    30    1
    27     9     1   ar
    28    29    23   ar
    29     8     4   ar
    30    19    20    1
    31    10    13    1
    32    21    22    1
@<TRIPOS>MOLECULE
*****
 30 32 0 0 0
SMALL
GASTEIGER

@<TRIPOS>ATOM
      1 C         139.3459  140.4228  167.3862 C.ar    1  UNL1        0.1666
      2 N         139.0227  139.5513  168.5633 N.ar    1  UNL1       -0.2348
      3 C         139.5057  139.9300  169.9321 C.ar    1  UNL1        0.1182
      4 C         140.3119  141.1803  170.1235 C.ar    1  UNL1        0.1048
      5 C         140.9198  141.8055  171.3440 C.ar    1  UNL1        0.1197
      6 N         141.6188  143.0635  170.9210 N.ar    1  UNL1       -0.2220
      7 C         141.4428  143.2158  169.4392 C.ar    1  UNL1        0.1838
      8 N         140.6351  142.0519  168.9463 N.ar    1  UNL1       -0.2731
      9 C         140.1521  141.6732  167.5776 C.ar    1  UNL1        0.1407
     10 N         139.1426  138.6735  165.4761 N.am    1  UNL1       -0.1884
     11 C         138.8629  140.0441  166.0174 C.2     1  UNL1        0.2884
     12 O         138.1003  141.0360  165.1901 O.2     1  UNL1       -0.2663
     13 H         139.6431  138.0225  166.0191 H       1  UNL1        0.1829
     14 O         138.6597  138.2947  164.1074 O.3     1  UNL1       -0.2661
     15 C         139.1939  139.0066  162.8999 C.3     1  UNL1        0.1734
     16 C         141.1418  140.6326  162.3416 C.3     1  UNL1        0.0053
     17 C         140.6639  139.2799  162.7799 C.3     1  UNL1        0.0615
     18 C         141.6559  138.2009  163.0981 C.3     1  UNL1        0.1397
     19 O         141.5671  136.8726  162.4067 O.3     1  UNL1       -0.3819
     20 H         140.7488  136.4242  162.6719 H       1  UNL1        0.2104
     21 N         140.4753  142.5448  166.4004 N.pl3   1  UNL1       -0.2959
     22 H         139.8569  143.2637  166.1356 H       1  UNL1        0.1537
     23 C         141.7407  142.3211  165.6265 C.ar    1  UNL1        0.0772
     24 C         142.5107  141.0456  165.8006 C.ar    1  UNL1        0.0174
     25 C         143.7761  140.8219  165.0268 C.ar    1  UNL1        0.0072
     26 C         144.2714  141.8737  164.0789 C.ar    1  UNL1        0.0324
     27 I         145.5368  141.6501  163.3051 I       1  UNL1       -0.0424
     28 C         143.5014  143.1491  163.9049 C.ar    1  UNL1        0.0367
     29 C         142.2360  143.3728  164.6787 C.ar    1  UNL1        0.1539
     30 F         141.4660  144.6483  164.5046 F       1  UNL1       -0.2028
@<TRIPOS>BOND
     1    17    16    1
     2    17    18    1
     3    18    19    1
     4    17    15    1
     5    15    14    1
     6    14    10    1
     7    10    11   am
     8    11    12    2
     9    11     1    1
    10     1     2   ar
    11     2     3   ar
    12     3     4   ar
    13     4     5   ar
    14     5     6   ar
    15     6     7   ar
    16     7     8   ar
    17     8     9   ar
    18     9    21    1
    19    21    23    1
    20    23    24   ar
    21    24    25   ar
    22    25    26   ar
    23    26    27    1
    24    26    28   ar
    25    28    29   ar
    26    29    30    1
    27     9     1   ar
    28    29    23   ar
    29     8     4   ar
    30    19    20    1
    31    10    13    1
    32    21    22    1
@<TRIPOS>MOLECULE
*****
 30 32 0 0 0
SMALL
GASTEIGER

@<TRIPOS>ATOM
      1 C         144.1003  141.4093  160.3466 C.ar    1  UNL1        0.1666
      2 N         143.9138  141.9011  158.9419 N.ar    1  UNL1       -0.2348
      3 C         143.4555  140.9559  157.8710 C.ar    1  UNL1        0.1182
      4 C         143.1837  139.5191  158.2050 C.ar    1  UNL1        0.1048
      5 C         142.7252  138.3631  157.3662 C.ar    1  UNL1        0.1197
      6 N         142.6283  137.1570  158.2527 N.ar    1  UNL1       -0.2220
      7 C         143.0269  137.5675  159.6393 C.ar    1  UNL1        0.1838
      8 N         143.3702  139.0274  159.6098 N.ar    1  UNL1       -0.2731
      9 C         143.8284  139.9725  160.6806 C.ar    1  UNL1        0.1407
     10 N         143.9407  143.7167  161.5302 N.am    1  UNL1       -0.1884
     11 C         144.5586  142.3545  161.4176 C.2     1  UNL1        0.2884
     12 O         145.6346  141.9374  162.3757 O.2     1  UNL1       -0.2663
     13 H         143.2345  143.9904  160.9013 H       1  UNL1        0.1829
     14 O         144.3990  144.6618  162.6011 O.3     1  UNL1       -0.2661
     15 C         143.4376  145.1226  163.6564 C.3     1  UNL1        0.1734
     16 C         142.0451  143.2246  164.7556 C.3     1  UNL1        0.0053
     17 C         142.1301  144.4112  163.8418 C.3     1  UNL1        0.0615
     18 C         140.9078  144.8863  163.1138 C.3     1  UNL1        0.1397
     19 O         140.7271  146.3472  162.8252 O.3     1  UNL1       -0.3819
     20 H         140.6173  146.8303  163.6591 H       1  UNL1        0.2104
     21 N         144.0149  139.4808  162.0854 N.pl3   1  UNL1       -0.2959
     22 H         144.8810  139.1049  162.3645 H       1  UNL1        0.1537
     23 C         142.8817  139.5617  163.0650 C.ar    1  UNL1        0.0772
     24 C         141.5073  139.9332  162.5928 C.ar    1  UNL1        0.0174
     25 C         140.3742  140.0142  163.5724 C.ar    1  UNL1        0.0072
     26 C         140.6155  139.7237  165.0241 C.ar    1  UNL1        0.0324
     27 I         139.4825  139.8046  166.0036 I       1  UNL1       -0.0424
     28 C         141.9900  139.3522  165.4962 C.ar    1  UNL1        0.0367
     29 C         143.1231  139.2713  164.5166 C.ar    1  UNL1        0.1539
     30 F         144.4976  138.8998  164.9888 F       1  UNL1       -0.2028
@<TRIPOS>BOND
     1    17    16    1
     2    17    18    1
     3    18    19    1
     4    17    15    1
     5    15    14    1
     6    14    10    1
     7    10    11   am
     8    11    12    2
     9    11     1    1
    10     1     2   ar
    11     2     3   ar
    12     3     4   ar
    13     4     5   ar
    14     5     6   ar
    15     6     7   ar
    16     7     8   ar
    17     8     9   ar
    18     9    21    1
    19    21    23    1
    20    23    24   ar
    21    24    25   ar
    22    25    26   ar
    23    26    27    1
    24    26    28   ar
    25    28    29   ar
    26    29    30    1
    27     9     1   ar
    28    29    23   ar
    29     8     4   ar
    30    19    20    1
    31    10    13    1
    32    21    22    1
@<TRIPOS>MOLECULE
*****
 30 32 0 0 0
SMALL
GASTEIGER

@<TRIPOS>ATOM
      1 C         138.3275  141.9457  160.7109 C.ar    1  UNL1        0.1666
      2 N         138.4463  142.8148  159.4943 N.ar    1  UNL1       -0.2348
      3 C         138.9561  142.2376  158.2070 C.ar    1  UNL1        0.1182
      4 C         139.3470  140.7912  158.1365 C.ar    1  UNL1        0.1048
      5 C         139.8783  139.9486  157.0150 C.ar    1  UNL1        0.1197
      6 N         140.0878  138.5587  157.5386 N.ar    1  UNL1       -0.2220
      7 C         139.6860  138.5422  158.9837 C.ar    1  UNL1        0.1838
      8 N         139.2281  139.9220  159.3532 N.ar    1  UNL1       -0.2731
      9 C         138.7184  140.4992  160.6404 C.ar    1  UNL1        0.1407
     10 N         138.1488  143.9382  162.3686 N.am    1  UNL1       -0.1884
     11 C         137.8177  142.5229  161.9982 C.2     1  UNL1        0.2884
     12 O         136.9769  141.6848  162.9150 O.2     1  UNL1       -0.2663
     13 H         138.7007  144.4883  161.7668 H       1  UNL1        0.1829
     14 O         137.6391  144.5154  163.6558 O.3     1  UNL1       -0.2661
     15 C         138.5281  144.5566  164.8634 C.3     1  UNL1        0.1734
     16 C         141.0462  144.2221  164.3183 C.3     1  UNL1        0.0053
     17 C         139.7666  143.7117  164.9119 C.3     1  UNL1        0.0615
     18 C         139.7256  142.3568  165.5540 C.3     1  UNL1        0.1397
     19 O         138.5682  141.4385  165.2944 O.3     1  UNL1       -0.3819
     20 H         137.7608  141.8214  165.6716 H       1  UNL1        0.2104
     21 N         138.5995  139.6300  161.8571 N.pl3   1  UNL1       -0.2959
     22 H         137.7466  139.1827  162.0611 H       1  UNL1        0.1537
     23 C         139.7803  139.4424  162.7631 C.ar    1  UNL1        0.0772
     24 C         140.9424  140.3877  162.6859 C.ar    1  UNL1        0.0174
     25 C         142.1232  140.2001  163.5919 C.ar    1  UNL1        0.0072
     26 C         142.1417  139.0673  164.5750 C.ar    1  UNL1        0.0324
     27 I         143.3224  138.8797  165.4809 I       1  UNL1       -0.0424
     28 C         140.9795  138.1221  164.6521 C.ar    1  UNL1        0.0367
     29 C         139.7988  138.3097  163.7461 C.ar    1  UNL1        0.1539
     30 F         138.6367  137.3644  163.8233 F       1  UNL1       -0.2028
@<TRIPOS>BOND
     1    17    16    1
     2    17    18    1
     3    18    19    1
     4    17    15    1
     5    15    14    1
     6    14    10    1
     7    10    11   am
     8    11    12    2
     9    11     1    1
    10     1     2   ar
    11     2     3   ar
    12     3     4   ar
    13     4     5   ar
    14     5     6   ar
    15     6     7   ar
    16     7     8   ar
    17     8     9   ar
    18     9    21    1
    19    21    23    1
    20    23    24   ar
    21    24    25   ar
    22    25    26   ar
    23    26    27    1
    24    26    28   ar
    25    28    29   ar
    26    29    30    1
    27     9     1   ar
    28    29    23   ar
    29     8     4   ar
    30    19    20    1
    31    10    13    1
    32    21    22    1
