@<TRIPOS>MOLECULE
*****
 31 33 0 0 0
SMALL
GASTEIGER

@<TRIPOS>ATOM
      1 C         141.7402  140.8294  163.2775 C.ar    1  UNL1        0.1739
      2 C         141.4425  141.4692  164.6011 C.ar    1  UNL1        0.0593
      3 C         141.9384  140.8374  165.8679 C.ar    1  UNL1        0.0901
      4 N         141.6407  141.4772  167.1916 N.ar    1  UNL1       -0.2134
      5 C         142.1366  140.8454  168.4585 C.ar    1  UNL1        0.2213
      6 N         142.9303  139.5738  168.4016 N.ar    1  UNL1       -0.1991
      7 C         143.2280  138.9340  167.0780 C.ar    1  UNL1        0.1298
      8 N         144.0217  137.6625  167.0212 N.pl3   1  UNL1       -0.3425
      9 C         142.7321  139.5658  165.8111 C.ar    1  UNL1        0.0522
     10 C         143.0298  138.9261  164.4875 C.ar    1  UNL1        0.0443
     11 C         142.5338  139.5579  163.2207 C.ar    1  UNL1        0.1726
     12 H         144.3472  137.2478  167.8526 H       1  UNL1        0.1437
     13 H         144.2171  137.2426  166.1524 H       1  UNL1        0.1437
     14 C         140.1072  142.4385  162.0551 C.3     1  UNL1        0.2526
     15 O         141.2442  141.4612  162.0106 O.3     1  UNL1       -0.4683
     16 N         141.8389  141.4851  169.7821 N.pl3   1  UNL1       -0.2764
     17 C         142.7027  142.6032  170.2859 C.3     1  UNL1        0.1151
     18 C         140.6774  141.0068  170.6020 C.3     1  UNL1        0.0954
     19 C         139.2892  141.0552  170.0358 C.3     1  UNL1        0.0427
     20 C         138.7481  139.8810  169.2753 C.3     1  UNL1        0.0912
     21 N         139.0422  139.7353  167.8117 N.am    1  UNL1       -0.3023
     22 C         138.1806  138.8531  166.9577 C.2     1  UNL1        0.2496
     23 O         137.0248  138.1166  167.5674 O.2     1  UNL1       -0.2725
     24 H         139.8008  140.2187  167.4115 H       1  UNL1        0.1495
     25 C         138.4748  138.7074  165.4941 C.3     1  UNL1        0.1908
     26 C         139.1555  137.5397  164.8435 C.3     1  UNL1        0.0416
     27 C         139.2414  137.8144  163.3714 C.3     1  UNL1        0.0351
     28 C         138.6137  139.1519  163.1121 C.3     1  UNL1        0.1428
     29 O         138.1399  139.7038  164.4240 O.3     1  UNL1       -0.3471
     30 O         142.8316  138.9181  161.8970 O.3     1  UNL1       -0.4684
     31 C         144.0185  139.3669  161.0971 C.3     1  UNL1        0.2526
@<TRIPOS>BOND
     1    14    15    1
     2    15     1    1
     3     1     2   ar
     4     2     3   ar
     5     3     4   ar
     6     4     5   ar
     7     5    16    1
     8    16    17    1
     9    16    18    1
    10    18    19    1
    11    19    20    1
    12    20    21    1
    13    21    22   am
    14    22    23    2
    15    22    25    1
    16    25    26    1
    17    26    27    1
    18    27    28    1
    19    28    29    1
    20     5     6   ar
    21     6     7   ar
    22     7     8    1
    23     7     9   ar
    24     9    10   ar
    25    10    11   ar
    26    11    30    1
    27    30    31    1
    28    11     1   ar
    29     9     3   ar
    30    29    25    1
    31    21    24    1
    32     8    12    1
    33     8    13    1
@<TRIPOS>MOLECULE
*****
 31 33 0 0 0
SMALL
GASTEIGER

@<TRIPOS>ATOM
      1 C         138.7059  144.3488  163.1429 C.ar    1  UNL1        0.1739
      2 C         139.3094  144.4897  164.5089 C.ar    1  UNL1        0.0593
      3 C         139.5013  143.2784  165.3726 C.ar    1  UNL1        0.0901
      4 N         140.1048  143.4193  166.7386 N.ar    1  UNL1       -0.2134
      5 C         140.2967  142.2081  167.6023 C.ar    1  UNL1        0.2213
      6 N         139.8851  140.8559  167.1000 N.ar    1  UNL1       -0.1991
      7 C         139.2816  140.7150  165.7341 C.ar    1  UNL1        0.1298
      8 N         138.8701  139.3629  165.2318 N.pl3   1  UNL1       -0.3425
      9 C         139.0897  141.9263  164.8703 C.ar    1  UNL1        0.0522
     10 C         138.4862  141.7854  163.5044 C.ar    1  UNL1        0.0443
     11 C         138.2943  142.9967  162.6406 C.ar    1  UNL1        0.1726
     12 H         138.9960  138.5679  165.7987 H       1  UNL1        0.1437
     13 H         138.4740  139.2704  164.3353 H       1  UNL1        0.1437
     14 C         139.7044  146.2593  161.6928 C.3     1  UNL1        0.2526
     15 O         138.5140  145.5600  162.2792 O.3     1  UNL1       -0.4683
     16 N         140.9002  142.3489  168.9683 N.pl3   1  UNL1       -0.2764
     17 C         140.1511  143.0718  170.0483 C.3     1  UNL1        0.1151
     18 C         142.2528  141.7669  169.2543 C.3     1  UNL1        0.0954
     19 C         142.3696  140.3791  169.8114 C.3     1  UNL1        0.0427
     20 C         142.6393  139.2232  168.8944 C.3     1  UNL1        0.0912
     21 N         142.4195  139.3700  167.4178 N.am    1  UNL1       -0.3023
     22 C         143.2711  138.5999  166.4526 C.2     1  UNL1        0.2496
     23 O         144.3425  137.6830  166.9638 O.2     1  UNL1       -0.2725
     24 H         141.7164  139.9718  167.0823 H       1  UNL1        0.1495
     25 C         143.0513  138.7468  164.9761 C.3     1  UNL1        0.1908
     26 C         144.1001  139.0832  163.9577 C.3     1  UNL1        0.0416
     27 C         143.4412  139.1274  162.6109 C.3     1  UNL1        0.0351
     28 C         141.9851  138.8183  162.7968 C.3     1  UNL1        0.1428
     29 O         141.7442  138.5831  164.2586 O.3     1  UNL1       -0.3471
     30 O         137.6908  142.8557  161.2746 O.3     1  UNL1       -0.4684
     31 C         138.5645  142.5360  160.0980 C.3     1  UNL1        0.2526
@<TRIPOS>BOND
     1    14    15    1
     2    15     1    1
     3     1     2   ar
     4     2     3   ar
     5     3     4   ar
     6     4     5   ar
     7     5    16    1
     8    16    17    1
     9    16    18    1
    10    18    19    1
    11    19    20    1
    12    20    21    1
    13    21    22   am
    14    22    23    2
    15    22    25    1
    16    25    26    1
    17    26    27    1
    18    27    28    1
    19    28    29    1
    20     5     6   ar
    21     6     7   ar
    22     7     8    1
    23     7     9   ar
    24     9    10   ar
    25    10    11   ar
    26    11    30    1
    27    30    31    1
    28    11     1   ar
    29     9     3   ar
    30    29    25    1
    31    21    24    1
    32     8    12    1
    33     8    13    1
@<TRIPOS>MOLECULE
*****
 31 33 0 0 0
SMALL
GASTEIGER

@<TRIPOS>ATOM
      1 C         139.5949  140.1659  167.5851 C.ar    1  UNL1        0.1739
      2 C         140.2604  141.3766  167.0011 C.ar    1  UNL1        0.0593
      3 C         139.8485  141.8802  165.6495 C.ar    1  UNL1        0.0901
      4 N         140.5141  143.0910  165.0654 N.ar    1  UNL1       -0.2134
      5 C         140.1022  143.5946  163.7139 C.ar    1  UNL1        0.2213
      6 N         139.0247  142.8874  162.9464 N.ar    1  UNL1       -0.1991
      7 C         138.3592  141.6767  163.5304 C.ar    1  UNL1        0.1298
      8 N         137.2818  140.9695  162.7629 N.pl3   1  UNL1       -0.3425
      9 C         138.7711  141.1731  164.8820 C.ar    1  UNL1        0.0522
     10 C         138.1056  139.9623  165.4661 C.ar    1  UNL1        0.0443
     11 C         138.5176  139.4588  166.8176 C.ar    1  UNL1        0.1726
     12 H         137.0115  141.3001  161.8759 H       1  UNL1        0.1437
     13 H         136.8450  140.1749  163.1463 H       1  UNL1        0.1437
     14 C         140.0240  140.5950  170.1113 C.3     1  UNL1        0.2526
     15 O         140.0069  139.6623  168.9367 O.3     1  UNL1       -0.4683
     16 N         140.7677  144.8054  163.1298 N.pl3   1  UNL1       -0.2764
     17 C         140.2026  145.4518  161.8998 C.3     1  UNL1        0.1151
     18 C         141.9983  145.3698  163.7757 C.3     1  UNL1        0.0954
     19 C         143.3539  145.0318  163.2300 C.3     1  UNL1        0.0427
     20 C         144.1610  143.9324  163.8544 C.3     1  UNL1        0.0912
     21 N         143.4750  142.7142  164.3981 N.am    1  UNL1       -0.3023
     22 C         143.7410  141.3693  163.7896 C.2     1  UNL1        0.2496
     23 O         144.6930  141.2424  162.6374 O.2     1  UNL1       -0.2725
     24 H         142.8501  142.7975  165.1543 H       1  UNL1        0.1495
     25 C         143.0549  140.1512  164.3333 C.3     1  UNL1        0.1908
     26 C         141.8663  139.4648  163.7282 C.3     1  UNL1        0.0416
     27 C         141.5138  138.2950  164.5984 C.3     1  UNL1        0.0351
     28 C         142.4845  138.2584  165.7414 C.3     1  UNL1        0.1428
     29 O         143.4370  139.4056  165.5775 O.3     1  UNL1       -0.3471
     30 O         137.8520  138.2479  167.4017 O.3     1  UNL1       -0.4684
     31 C         137.6669  137.0169  166.5649 C.3     1  UNL1        0.2526
@<TRIPOS>BOND
     1    14    15    1
     2    15     1    1
     3     1     2   ar
     4     2     3   ar
     5     3     4   ar
     6     4     5   ar
     7     5    16    1
     8    16    17    1
     9    16    18    1
    10    18    19    1
    11    19    20    1
    12    20    21    1
    13    21    22   am
    14    22    23    2
    15    22    25    1
    16    25    26    1
    17    26    27    1
    18    27    28    1
    19    28    29    1
    20     5     6   ar
    21     6     7   ar
    22     7     8    1
    23     7     9   ar
    24     9    10   ar
    25    10    11   ar
    26    11    30    1
    27    30    31    1
    28    11     1   ar
    29     9     3   ar
    30    29    25    1
    31    21    24    1
    32     8    12    1
    33     8    13    1
@<TRIPOS>MOLECULE
*****
 31 33 0 0 0
SMALL
GASTEIGER

@<TRIPOS>ATOM
      1 C         140.9520  141.5782  169.1381 C.ar    1  UNL1        0.1739
      2 C         140.7881  142.5776  168.0317 C.ar    1  UNL1        0.0593
      3 C         141.1063  142.1902  166.6179 C.ar    1  UNL1        0.0901
      4 N         140.9424  143.1897  165.5115 N.ar    1  UNL1       -0.2134
      5 C         141.2606  142.8024  164.0977 C.ar    1  UNL1        0.2213
      6 N         141.7428  141.4156  163.7904 N.ar    1  UNL1       -0.1991
      7 C         141.9066  140.4162  164.8969 C.ar    1  UNL1        0.1298
      8 N         142.3887  139.0295  164.5895 N.pl3   1  UNL1       -0.3425
      9 C         141.5884  140.8035  166.3106 C.ar    1  UNL1        0.0522
     10 C         141.7523  139.8041  167.4171 C.ar    1  UNL1        0.0443
     11 C         141.4341  140.1914  168.8308 C.ar    1  UNL1        0.1726
     12 H         142.5976  138.7753  163.6616 H       1  UNL1        0.1437
     13 H         142.4963  138.3735  165.3157 H       1  UNL1        0.1437
     14 C         139.6954  143.1035  170.8247 C.3     1  UNL1        0.2526
     15 O         140.6338  141.9655  170.5519 O.3     1  UNL1       -0.4683
     16 N         141.0967  143.8018  162.9913 N.pl3   1  UNL1       -0.2764
     17 C         141.9197  143.6806  161.7431 C.3     1  UNL1        0.1151
     18 C         140.1098  144.9226  163.1330 C.3     1  UNL1        0.0954
     19 C         138.6820  144.7214  162.7195 C.3     1  UNL1        0.0427
     20 C         137.7176  144.0536  163.6543 C.3     1  UNL1        0.0912
     21 N         138.0768  142.7450  164.2936 N.am    1  UNL1       -0.3023
     22 C         137.8459  141.4606  163.5542 C.2     1  UNL1        0.2496
     23 O         137.2557  141.4846  162.1754 O.2     1  UNL1       -0.2725
     24 H         138.4641  142.7292  165.1986 H       1  UNL1        0.1495
     25 C         138.2051  140.1521  164.1936 C.3     1  UNL1        0.1908
     26 C         138.1631  139.8472  165.6617 C.3     1  UNL1        0.0416
     27 C         138.6014  138.4255  165.8526 C.3     1  UNL1        0.0351
     28 C         138.9144  137.8516  164.5025 C.3     1  UNL1        0.1428
     29 O         138.6694  138.9188  163.4771 O.3     1  UNL1       -0.3471
     30 O         141.5980  139.1919  169.9373 O.3     1  UNL1       -0.4684
     31 C         142.8796  138.4239  170.0704 C.3     1  UNL1        0.2526
@<TRIPOS>BOND
     1    14    15    1
     2    15     1    1
     3     1     2   ar
     4     2     3   ar
     5     3     4   ar
     6     4     5   ar
     7     5    16    1
     8    16    17    1
     9    16    18    1
    10    18    19    1
    11    19    20    1
    12    20    21    1
    13    21    22   am
    14    22    23    2
    15    22    25    1
    16    25    26    1
    17    26    27    1
    18    27    28    1
    19    28    29    1
    20     5     6   ar
    21     6     7   ar
    22     7     8    1
    23     7     9   ar
    24     9    10   ar
    25    10    11   ar
    26    11    30    1
    27    30    31    1
    28    11     1   ar
    29     9     3   ar
    30    29    25    1
    31    21    24    1
    32     8    12    1
    33     8    13    1
@<TRIPOS>MOLECULE
*****
 31 33 0 0 0
SMALL
GASTEIGER

@<TRIPOS>ATOM
      1 C         141.1067  141.9159  168.1584 C.ar    1  UNL1        0.1739
      2 C         141.6135  142.1525  166.7666 C.ar    1  UNL1        0.0593
      3 C         142.5003  141.1374  166.1086 C.ar    1  UNL1        0.0901
      4 N         143.0071  141.3741  164.7167 N.ar    1  UNL1       -0.2134
      5 C         143.8940  140.3590  164.0587 C.ar    1  UNL1        0.2213
      6 N         144.2741  139.1071  164.7925 N.ar    1  UNL1       -0.1991
      7 C         143.7673  138.8705  166.1843 C.ar    1  UNL1        0.1298
      8 N         144.1474  137.6187  166.9181 N.pl3   1  UNL1       -0.3425
      9 C         142.8804  139.8856  166.8423 C.ar    1  UNL1        0.0522
     10 C         142.3737  139.6489  168.2341 C.ar    1  UNL1        0.0443
     11 C         141.4868  140.6641  168.8921 C.ar    1  UNL1        0.1726
     12 H         144.7295  136.9524  166.4862 H       1  UNL1        0.1437
     13 H         143.8148  137.4633  167.8316 H       1  UNL1        0.1437
     14 C         140.7753  143.8399  169.8724 C.3     1  UNL1        0.2526
     15 O         140.2198  142.9310  168.8164 O.3     1  UNL1       -0.4683
     16 N         144.4007  140.5956  162.6669 N.pl3   1  UNL1       -0.2764
     17 C         144.0461  139.6394  161.5669 C.3     1  UNL1        0.1151
     18 C         145.2621  141.7885  162.3750 C.3     1  UNL1        0.0954
     19 C         144.6634  143.0088  161.7407 C.3     1  UNL1        0.0427
     20 C         144.1588  144.1298  162.6002 C.3     1  UNL1        0.0912
     21 N         142.7873  144.0539  163.2030 N.am    1  UNL1       -0.3023
     22 C         141.5916  144.4765  162.4021 C.2     1  UNL1        0.2496
     23 O         141.7672  144.9751  160.9983 O.2     1  UNL1       -0.2725
     24 H         142.6720  143.7267  164.1244 H       1  UNL1        0.1495
     25 C         140.2202  144.4006  163.0049 C.3     1  UNL1        0.1908
     26 C         139.8721  144.6639  164.4401 C.3     1  UNL1        0.0416
     27 C         138.3929  144.4741  164.6007 C.3     1  UNL1        0.0351
     28 C         137.8266  144.0935  163.2648 C.3     1  UNL1        0.1428
     29 O         138.9560  144.0480  162.2786 O.3     1  UNL1       -0.3471
     30 O         140.9801  140.4274  170.2840 O.3     1  UNL1       -0.4684
     31 C         139.5598  139.9967  170.5020 C.3     1  UNL1        0.2526
@<TRIPOS>BOND
     1    14    15    1
     2    15     1    1
     3     1     2   ar
     4     2     3   ar
     5     3     4   ar
     6     4     5   ar
     7     5    16    1
     8    16    17    1
     9    16    18    1
    10    18    19    1
    11    19    20    1
    12    20    21    1
    13    21    22   am
    14    22    23    2
    15    22    25    1
    16    25    26    1
    17    26    27    1
    18    27    28    1
    19    28    29    1
    20     5     6   ar
    21     6     7   ar
    22     7     8    1
    23     7     9   ar
    24     9    10   ar
    25    10    11   ar
    26    11    30    1
    27    30    31    1
    28    11     1   ar
    29     9     3   ar
    30    29    25    1
    31    21    24    1
    32     8    12    1
    33     8    13    1
@<TRIPOS>MOLECULE
*****
 31 33 0 0 0
SMALL
GASTEIGER

@<TRIPOS>ATOM
      1 C         139.2644  141.1576  163.5032 C.ar    1  UNL1        0.1739
      2 C         139.8256  141.6779  164.7933 C.ar    1  UNL1        0.0593
      3 C         139.4935  140.9933  166.0860 C.ar    1  UNL1        0.0901
      4 N         140.0547  141.5138  167.3760 N.ar    1  UNL1       -0.2134
      5 C         139.7226  140.8292  168.6687 C.ar    1  UNL1        0.2213
      6 N         138.8292  139.6242  168.6713 N.ar    1  UNL1       -0.1991
      7 C         138.2680  139.1039  167.3813 C.ar    1  UNL1        0.1298
      8 N         137.3747  137.8989  167.3840 N.pl3   1  UNL1       -0.3425
      9 C         138.6001  139.7884  166.0886 C.ar    1  UNL1        0.0522
     10 C         138.0389  139.2681  164.7986 C.ar    1  UNL1        0.0443
     11 C         138.3711  139.9526  163.5059 C.ar    1  UNL1        0.1726
     12 H         137.1567  137.4496  168.2324 H       1  UNL1        0.1437
     13 H         137.0063  137.5574  166.5373 H       1  UNL1        0.1437
     14 C         141.0121  142.2408  161.9151 C.3     1  UNL1        0.2526
     15 O         139.5966  141.8421  162.2105 O.3     1  UNL1       -0.4683
     16 N         140.2838  141.3495  169.9588 N.pl3   1  UNL1       -0.2764
     17 C         139.8649  142.6961  170.4699 C.3     1  UNL1        0.1151
     18 C         141.2640  140.5233  170.7377 C.3     1  UNL1        0.0954
     19 C         142.1399  139.5329  170.0294 C.3     1  UNL1        0.0427
     20 C         142.8026  139.9076  168.7369 C.3     1  UNL1        0.0912
     21 N         142.4671  139.1633  167.4786 N.am    1  UNL1       -0.3023
     22 C         142.7607  139.7783  166.1424 C.2     1  UNL1        0.2496
     23 O         143.3899  141.1377  166.0645 O.2     1  UNL1       -0.2725
     24 H         142.0541  138.2710  167.5297 H       1  UNL1        0.1495
     25 C         142.4252  139.0339  164.8841 C.3     1  UNL1        0.1908
     26 C         141.5394  137.8275  164.7829 C.3     1  UNL1        0.0416
     27 C         141.4832  137.4132  163.3424 C.3     1  UNL1        0.0351
     28 C         142.3343  138.3635  162.5532 C.3     1  UNL1        0.1428
     29 O         142.9164  139.3651  163.5061 O.3     1  UNL1       -0.3471
     30 O         137.8098  139.4322  162.2158 O.3     1  UNL1       -0.4684
     31 C         138.4529  138.2593  161.5372 C.3     1  UNL1        0.2526
@<TRIPOS>BOND
     1    14    15    1
     2    15     1    1
     3     1     2   ar
     4     2     3   ar
     5     3     4   ar
     6     4     5   ar
     7     5    16    1
     8    16    17    1
     9    16    18    1
    10    18    19    1
    11    19    20    1
    12    20    21    1
    13    21    22   am
    14    22    23    2
    15    22    25    1
    16    25    26    1
    17    26    27    1
    18    27    28    1
    19    28    29    1
    20     5     6   ar
    21     6     7   ar
    22     7     8    1
    23     7     9   ar
    24     9    10   ar
    25    10    11   ar
    26    11    30    1
    27    30    31    1
    28    11     1   ar
    29     9     3   ar
    30    29    25    1
    31    21    24    1
    32     8    12    1
    33     8    13    1
@<TRIPOS>MOLECULE
*****
 31 33 0 0 0
SMALL
GASTEIGER

@<TRIPOS>ATOM
      1 C         140.9230  142.3139  167.6927 C.ar    1  UNL1        0.1739
      2 C         140.2032  142.9337  166.5318 C.ar    1  UNL1        0.0593
      3 C         140.9497  143.2538  165.2708 C.ar    1  UNL1        0.0901
      4 N         140.2299  143.8737  164.1099 N.ar    1  UNL1       -0.2134
      5 C         140.9764  144.1938  162.8488 C.ar    1  UNL1        0.2213
      6 N         142.4428  143.8940  162.7487 N.ar    1  UNL1       -0.1991
      7 C         143.1626  143.2742  163.9096 C.ar    1  UNL1        0.1298
      8 N         144.6289  142.9745  163.8095 N.pl3   1  UNL1       -0.3425
      9 C         142.4160  142.9541  165.1707 C.ar    1  UNL1        0.0522
     10 C         143.1358  142.3343  166.3315 C.ar    1  UNL1        0.0443
     11 C         142.3893  142.0142  167.5926 C.ar    1  UNL1        0.1726
     12 H         145.1188  143.1846  162.9818 H       1  UNL1        0.1437
     13 H         145.1013  142.5676  164.5714 H       1  UNL1        0.1437
     14 C         139.6977  140.5951  169.2074 C.3     1  UNL1        0.2526
     15 O         140.1764  141.9938  168.9538 O.3     1  UNL1       -0.4683
     16 N         140.2567  144.8136  161.6880 N.pl3   1  UNL1       -0.2764
     17 C         139.7798  146.2333  161.7725 C.3     1  UNL1        0.1151
     18 C         140.0137  144.0138  160.4424 C.3     1  UNL1        0.0954
     19 C         139.2391  142.7313  160.5138 C.3     1  UNL1        0.0427
     20 C         138.0949  142.5988  161.4746 C.3     1  UNL1        0.0912
     21 N         138.2491  141.7690  162.7147 N.am    1  UNL1       -0.3023
     22 C         138.1744  140.2733  162.6304 C.2     1  UNL1        0.2496
     23 O         137.9454  139.6072  161.3060 O.2     1  UNL1       -0.2725
     24 H         138.3994  142.2061  163.5839 H       1  UNL1        0.1495
     25 C         138.3286  139.4436  163.8704 C.3     1  UNL1        0.1908
     26 C         138.7856  138.0158  163.9248 C.3     1  UNL1        0.0416
     27 C         138.7923  137.5857  165.3618 C.3     1  UNL1        0.0351
     28 C         138.3396  138.7476  166.1956 C.3     1  UNL1        0.1428
     29 O         138.0530  139.8958  165.2738 O.3     1  UNL1       -0.3471
     30 O         143.1091  141.3943  168.7535 O.3     1  UNL1       -0.4684
     31 C         143.7379  142.2672  169.7988 C.3     1  UNL1        0.2526
@<TRIPOS>BOND
     1    14    15    1
     2    15     1    1
     3     1     2   ar
     4     2     3   ar
     5     3     4   ar
     6     4     5   ar
     7     5    16    1
     8    16    17    1
     9    16    18    1
    10    18    19    1
    11    19    20    1
    12    20    21    1
    13    21    22   am
    14    22    23    2
    15    22    25    1
    16    25    26    1
    17    26    27    1
    18    27    28    1
    19    28    29    1
    20     5     6   ar
    21     6     7   ar
    22     7     8    1
    23     7     9   ar
    24     9    10   ar
    25    10    11   ar
    26    11    30    1
    27    30    31    1
    28    11     1   ar
    29     9     3   ar
    30    29    25    1
    31    21    24    1
    32     8    12    1
    33     8    13    1
@<TRIPOS>MOLECULE
*****
 31 33 0 0 0
SMALL
GASTEIGER

@<TRIPOS>ATOM
      1 C         139.5533  140.1148  167.6347 C.ar    1  UNL1        0.1739
      2 C         140.3415  141.2014  166.9656 C.ar    1  UNL1        0.0593
      3 C         140.0155  141.6068  165.5586 C.ar    1  UNL1        0.0901
      4 N         140.8038  142.6935  164.8895 N.ar    1  UNL1       -0.2134
      5 C         140.4778  143.0988  163.4825 C.ar    1  UNL1        0.2213
      6 N         139.3635  142.4175  162.7448 N.ar    1  UNL1       -0.1991
      7 C         138.5753  141.3309  163.4140 C.ar    1  UNL1        0.1298
      8 N         137.4610  140.6496  162.6763 N.pl3   1  UNL1       -0.3425
      9 C         138.9013  140.9255  164.8209 C.ar    1  UNL1        0.0522
     10 C         138.1130  139.8389  165.4901 C.ar    1  UNL1        0.0443
     11 C         138.4391  139.4335  166.8970 C.ar    1  UNL1        0.1726
     12 H         137.2471  140.9156  161.7529 H       1  UNL1        0.1437
     13 H         136.9436  139.9364  163.1155 H       1  UNL1        0.1437
     14 C         139.2517  140.4339  170.1954 C.3     1  UNL1        0.2526
     15 O         139.8793  139.7094  169.0417 O.3     1  UNL1       -0.4683
     16 N         141.2660  144.1855  162.8134 N.pl3   1  UNL1       -0.2764
     17 C         141.8817  145.2797  163.6341 C.3     1  UNL1        0.1151
     18 C         141.4387  144.1779  161.3233 C.3     1  UNL1        0.0954
     19 C         142.6093  143.4706  160.7075 C.3     1  UNL1        0.0427
     20 C         142.4317  142.1060  160.1105 C.3     1  UNL1        0.0912
     21 N         141.5794  141.0874  160.8078 N.am    1  UNL1       -0.3023
     22 C         142.1943  140.1518  161.8060 C.2     1  UNL1        0.2496
     23 O         143.6614  140.2347  162.1071 O.2     1  UNL1       -0.2725
     24 H         140.6165  141.0330  160.6102 H       1  UNL1        0.1495
     25 C         141.3420  139.1333  162.5033 C.3     1  UNL1        0.1908
     26 C         141.6620  138.4569  163.8034 C.3     1  UNL1        0.0416
     27 C         140.5378  137.5179  164.1265 C.3     1  UNL1        0.0351
     28 C         139.5229  137.6139  163.0261 C.3     1  UNL1        0.1428
     29 O         140.0199  138.6123  162.0229 O.3     1  UNL1       -0.3471
     30 O         137.6507  138.3468  167.5662 O.3     1  UNL1       -0.4684
     31 C         137.4113  137.0477  166.8556 C.3     1  UNL1        0.2526
@<TRIPOS>BOND
     1    14    15    1
     2    15     1    1
     3     1     2   ar
     4     2     3   ar
     5     3     4   ar
     6     4     5   ar
     7     5    16    1
     8    16    17    1
     9    16    18    1
    10    18    19    1
    11    19    20    1
    12    20    21    1
    13    21    22   am
    14    22    23    2
    15    22    25    1
    16    25    26    1
    17    26    27    1
    18    27    28    1
    19    28    29    1
    20     5     6   ar
    21     6     7   ar
    22     7     8    1
    23     7     9   ar
    24     9    10   ar
    25    10    11   ar
    26    11    30    1
    27    30    31    1
    28    11     1   ar
    29     9     3   ar
    30    29    25    1
    31    21    24    1
    32     8    12    1
    33     8    13    1
@<TRIPOS>MOLECULE
*****
 31 33 0 0 0
SMALL
GASTEIGER

@<TRIPOS>ATOM
      1 C         141.1669  140.4333  169.5871 C.ar    1  UNL1        0.1739
      2 C         142.2142  140.2085  168.5372 C.ar    1  UNL1        0.0593
      3 C         141.8097  139.8301  167.1432 C.ar    1  UNL1        0.0901
      4 N         142.8572  139.6053  166.0932 N.ar    1  UNL1       -0.2134
      5 C         142.4527  139.2268  164.6992 C.ar    1  UNL1        0.2213
      6 N         141.0007  139.0732  164.3552 N.ar    1  UNL1       -0.1991
      7 C         139.9534  139.2980  165.4052 C.ar    1  UNL1        0.1298
      8 N         138.5015  139.1444  165.0611 N.pl3   1  UNL1       -0.3425
      9 C         140.3579  139.6764  166.7992 C.ar    1  UNL1        0.0522
     10 C         139.3105  139.9012  167.8491 C.ar    1  UNL1        0.0443
     11 C         139.7150  140.2797  169.2431 C.ar    1  UNL1        0.1726
     12 H         138.2360  138.8960  164.1462 H       1  UNL1        0.1437
     13 H         137.8140  139.2919  165.7503 H       1  UNL1        0.1437
     14 C         141.9178  142.2356  171.3011 C.3     1  UNL1        0.2526
     15 O         141.5714  140.8117  170.9811 O.3     1  UNL1       -0.4683
     16 N         143.5001  139.0020  163.6493 N.pl3   1  UNL1       -0.2764
     17 C         143.1609  138.2399  162.4026 C.3     1  UNL1        0.1151
     18 C         144.8867  139.5394  163.8460 C.3     1  UNL1        0.0954
     19 C         145.2457  140.8983  163.3221 C.3     1  UNL1        0.0427
     20 C         145.1057  142.1032  164.2044 C.3     1  UNL1        0.0912
     21 N         143.7575  142.4918  164.7349 N.am    1  UNL1       -0.3023
     22 C         142.8094  143.2728  163.8741 C.2     1  UNL1        0.2496
     23 O         143.2095  143.6653  162.4827 O.2     1  UNL1       -0.2725
     24 H         143.4949  142.2341  165.6481 H       1  UNL1        0.1495
     25 C         141.4612  143.6613  164.4046 C.3     1  UNL1        0.1908
     26 C         140.7733  143.0562  165.5924 C.3     1  UNL1        0.0416
     27 C         139.4512  143.7441  165.7624 C.3     1  UNL1        0.0351
     28 C         139.3219  144.7742  164.6797 C.3     1  UNL1        0.1428
     29 O         140.5643  144.7231  163.8406 O.3     1  UNL1       -0.3471
     30 O         138.6675  140.5045  170.2930 O.3     1  UNL1       -0.4684
     31 C         137.5257  139.5417  170.4315 C.3     1  UNL1        0.2526
@<TRIPOS>BOND
     1    14    15    1
     2    15     1    1
     3     1     2   ar
     4     2     3   ar
     5     3     4   ar
     6     4     5   ar
     7     5    16    1
     8    16    17    1
     9    16    18    1
    10    18    19    1
    11    19    20    1
    12    20    21    1
    13    21    22   am
    14    22    23    2
    15    22    25    1
    16    25    26    1
    17    26    27    1
    18    27    28    1
    19    28    29    1
    20     5     6   ar
    21     6     7   ar
    22     7     8    1
    23     7     9   ar
    24     9    10   ar
    25    10    11   ar
    26    11    30    1
    27    30    31    1
    28    11     1   ar
    29     9     3   ar
    30    29    25    1
    31    21    24    1
    32     8    12    1
    33     8    13    1
