@<TRIPOS>MOLECULE
*****
 44 48 0 0 0
SMALL
GASTEIGER

@<TRIPOS>ATOM
      1 C         143.5470  139.5483  156.8056 C.ar    1  UNL1        0.1690
      2 C         142.9137  138.2380  157.1689 C.ar    1  UNL1        0.1754
      3 C         142.5763  137.9391  158.5996 C.ar    1  UNL1        0.0776
      4 C         142.8721  138.9506  159.6670 C.ar    1  UNL1        0.1512
      5 O         142.5347  138.6518  161.0976 O.2     1  UNL1       -0.4530
      6 C         142.8305  139.6633  162.1651 C.ar    1  UNL1        0.1543
      7 C         142.4930  139.3644  163.5957 C.ar    1  UNL1        0.0747
      8 C         142.7889  140.3759  164.6632 C.ar    1  UNL1        0.1445
      9 C         143.4221  141.6863  164.3000 C.ar    1  UNL1        0.0680
     10 C         143.7596  141.9851  162.8692 C.ar    1  UNL1        0.1478
     11 C         143.4637  140.9736  161.8018 C.ar    1  UNL1        0.1076
     12 C         143.8012  141.2725  160.3711 C.ar    1  UNL1        0.2042
     13 O         144.4344  142.5828  160.0079 O.2     1  UNL1       -0.2863
     14 C         143.5054  140.2610  159.3037 C.ar    1  UNL1        0.0731
     15 C         143.8428  140.5599  157.8731 C.ar    1  UNL1        0.0252
     16 C         143.7179  142.6977  165.3673 C.2     1  UNL1        0.0049
     17 C         143.3805  142.3989  166.7980 C.2     1  UNL1        0.0130
     18 C         142.7472  141.0885  167.1612 C.3     1  UNL1        0.1517
     19 C         142.1440  139.9980  167.9959 C.3     1  UNL1        0.0483
     20 C         142.8336  141.7213  168.5185 C.3     1  UNL1        0.0483
     21 O         142.4514  140.0770  166.0938 O.3     1  UNL1       -0.4783
     22 C         145.0326  139.1451  154.7129 C.3     1  UNL1        0.2526
     23 O         143.8844  139.8472  155.3750 O.3     1  UNL1       -0.4687
     24 O         142.6179  137.2265  156.1015 O.3     1  UNL1       -0.4675
     25 C         141.9850  135.9160  156.4648 C.3     1  UNL1        0.2321
     26 C         142.7824  134.6484  156.3780 C.ar    1  UNL1        0.0213
     27 C         142.7128  133.8018  155.1417 C.ar    1  UNL1        0.0016
     28 C         143.5102  132.5342  155.0549 C.ar    1  UNL1        0.0294
     29 C         144.3771  132.1133  156.2043 C.ar    1  UNL1        0.1401
     30 F         145.1745  130.8457  156.1175 F       1  UNL1       -0.2042
     31 C         144.4467  132.9599  157.4406 C.ar    1  UNL1        0.0294
     32 C         143.6493  134.2275  157.5274 C.ar    1  UNL1        0.0016
     33 O         144.3928  143.2955  162.5060 O.3     1  UNL1       -0.4703
     34 C         143.6032  144.5660  162.6156 C.3     1  UNL1        0.2318
     35 C         142.1363  144.5669  162.3021 C.2     1  UNL1        0.0218
     36 C         141.1629  145.1721  163.2696 C.2     1  UNL1        0.0142
     37 C         139.6960  145.1729  162.9561 C.2     1  UNL1        0.0727
     38 O         139.2066  145.7461  161.6593 O.co2   1  UNL1       -0.5446
     39 O         138.7186  144.6006  163.9396 O.co2   1  UNL1       -0.5446
     40 C         144.4761  141.8702  157.5099 C.3     1  UNL1        0.0550
     41 C         145.9137  141.9160  157.0841 C.2     1  UNL1       -0.0298
     42 C         146.2791  142.4570  155.7337 C.2     1  UNL1       -0.0475
     43 C         147.7167  142.5027  155.3079 C.3     1  UNL1        0.0260
     44 C         145.2069  142.9522  154.8089 C.3     1  UNL1        0.0260
@<TRIPOS>UNITY_ATOM_ATTR
38 1
charge -1
@<TRIPOS>BOND
     1    22    23    1
     2    23     1    1
     3     1     2   ar
     4     2    24    1
     5    24    25    1
     6    25    26    1
     7    26    27   ar
     8    27    28   ar
     9    28    29   ar
    10    29    30    1
    11    29    31   ar
    12    31    32   ar
    13     2     3   ar
    14     3     4   ar
    15     4     5   ar
    16     5     6   ar
    17     6     7   ar
    18     7     8   ar
    19     8     9   ar
    20     9    10   ar
    21    10    33    1
    22    33    34    1
    23    34    35    1
    24    35    36    2
    25    36    37    1
    26    37    38   ar
    27    37    39   ar
    28    10    11   ar
    29    11    12   ar
    30    12    13    2
    31    12    14   ar
    32    14    15   ar
    33    15    40    1
    34    40    41    1
    35    41    42    2
    36    42    43    1
    37    42    44    1
    38     9    16    1
    39    16    17    2
    40    17    18    1
    41    18    19    1
    42    18    20    1
    43    18    21    1
    44    15     1   ar
    45    32    26   ar
    46    14     4   ar
    47    11     6   ar
    48    21     8    1
@<TRIPOS>MOLECULE
*****
 44 48 0 0 0
SMALL
GASTEIGER

@<TRIPOS>ATOM
      1 C         140.1917  139.6689  165.5376 C.ar    1  UNL1        0.1690
      2 C         141.5605  139.1179  165.8073 C.ar    1  UNL1        0.1754
      3 C         142.3913  138.5868  164.6768 C.ar    1  UNL1        0.0776
      4 C         141.8532  138.6068  163.2768 C.ar    1  UNL1        0.1512
      5 O         142.6840  138.0758  162.1465 O.2     1  UNL1       -0.4530
      6 C         142.1460  138.0958  160.7464 C.ar    1  UNL1        0.1543
      7 C         142.9768  137.5648  159.6160 C.ar    1  UNL1        0.0747
      8 C         142.4388  137.5848  158.2159 C.ar    1  UNL1        0.1445
      9 C         141.0700  138.1359  157.9462 C.ar    1  UNL1        0.0680
     10 C         140.2392  138.6669  159.0767 C.ar    1  UNL1        0.1478
     11 C         140.7772  138.6469  160.4767 C.ar    1  UNL1        0.1076
     12 C         139.9464  139.1779  161.6072 C.ar    1  UNL1        0.2042
     13 O         138.5776  139.7290  161.3375 O.2     1  UNL1       -0.2863
     14 C         140.4844  139.1579  163.0072 C.ar    1  UNL1        0.0731
     15 C         139.6537  139.6890  164.1375 C.ar    1  UNL1        0.0252
     16 C         140.5320  138.1559  156.5462 C.2     1  UNL1        0.0049
     17 C         141.3627  137.6249  155.4159 C.2     1  UNL1        0.0130
     18 C         142.7315  137.0738  155.6855 C.3     1  UNL1        0.1517
     19 C         144.0756  136.4550  155.4392 C.3     1  UNL1        0.0483
     20 C         142.6603  136.8789  154.2000 C.3     1  UNL1        0.0483
     21 O         143.2696  137.0538  157.0855 O.3     1  UNL1       -0.4783
     22 C         138.4893  139.2704  167.4593 C.3     1  UNL1        0.2526
     23 O         139.3609  140.2000  166.6680 O.3     1  UNL1       -0.4687
     24 O         142.0985  139.0978  167.2073 O.3     1  UNL1       -0.4675
     25 C         142.5978  140.3643  167.8371 C.3     1  UNL1        0.2321
     26 C         141.6949  141.1662  168.7268 C.ar    1  UNL1        0.0213
     27 C         141.1331  140.5520  169.9747 C.ar    1  UNL1        0.0016
     28 C         140.2301  141.3540  170.8644 C.ar    1  UNL1        0.0294
     29 C         139.8889  142.7700  170.5062 C.ar    1  UNL1        0.1401
     30 F         138.9859  143.5720  171.3960 F       1  UNL1       -0.2042
     31 C         140.4507  143.3842  169.2584 C.ar    1  UNL1        0.0294
     32 C         141.3536  142.5823  168.3687 C.ar    1  UNL1        0.0016
     33 O         138.8704  139.2180  158.8070 O.3     1  UNL1       -0.4703
     34 C         138.7172  140.5451  158.1250 C.3     1  UNL1        0.2318
     35 C         139.6790  141.6569  158.4229 C.2     1  UNL1        0.0218
     36 C         139.1637  143.0059  158.8286 C.2     1  UNL1        0.0142
     37 C         140.1256  144.1177  159.1264 C.2     1  UNL1        0.0727
     38 O         141.4873  144.1200  158.4974 O.co2   1  UNL1       -0.5446
     39 O         139.7257  145.2272  160.0534 O.co2   1  UNL1       -0.5446
     40 C         138.2849  140.2400  163.8679 C.3     1  UNL1        0.0550
     41 C         137.8452  141.5129  164.5287 C.2     1  UNL1       -0.0298
     42 C         138.1791  142.8357  163.9053 C.2     1  UNL1       -0.0475
     43 C         137.7395  144.1085  164.5661 C.3     1  UNL1        0.0260
     44 C         138.9526  142.8857  162.6211 C.3     1  UNL1        0.0260
@<TRIPOS>UNITY_ATOM_ATTR
38 1
charge -1
@<TRIPOS>BOND
     1    22    23    1
     2    23     1    1
     3     1     2   ar
     4     2    24    1
     5    24    25    1
     6    25    26    1
     7    26    27   ar
     8    27    28   ar
     9    28    29   ar
    10    29    30    1
    11    29    31   ar
    12    31    32   ar
    13     2     3   ar
    14     3     4   ar
    15     4     5   ar
    16     5     6   ar
    17     6     7   ar
    18     7     8   ar
    19     8     9   ar
    20     9    10   ar
    21    10    33    1
    22    33    34    1
    23    34    35    1
    24    35    36    2
    25    36    37    1
    26    37    38   ar
    27    37    39   ar
    28    10    11   ar
    29    11    12   ar
    30    12    13    2
    31    12    14   ar
    32    14    15   ar
    33    15    40    1
    34    40    41    1
    35    41    42    2
    36    42    43    1
    37    42    44    1
    38     9    16    1
    39    16    17    2
    40    17    18    1
    41    18    19    1
    42    18    20    1
    43    18    21    1
    44    15     1   ar
    45    32    26   ar
    46    14     4   ar
    47    11     6   ar
    48    21     8    1
@<TRIPOS>MOLECULE
*****
 44 48 0 0 0
SMALL
GASTEIGER

@<TRIPOS>ATOM
      1 C         141.0664  138.5702  158.5026 C.ar    1  UNL1        0.1690
      2 C         142.3506  137.8387  158.7589 C.ar    1  UNL1        0.1754
      3 C         142.8767  137.7147  160.1582 C.ar    1  UNL1        0.0776
      4 C         142.1186  138.3221  161.3011 C.ar    1  UNL1        0.1512
      5 O         142.6447  138.1981  162.7003 O.2     1  UNL1       -0.4530
      6 C         141.8866  138.8056  163.8433 C.ar    1  UNL1        0.1543
      7 C         142.4127  138.6816  165.2424 C.ar    1  UNL1        0.0747
      8 C         141.6546  139.2891  166.3854 C.ar    1  UNL1        0.1445
      9 C         140.3704  140.0206  166.1291 C.ar    1  UNL1        0.0680
     10 C         139.8443  140.1446  164.7298 C.ar    1  UNL1        0.1478
     11 C         140.6024  139.5371  163.5869 C.ar    1  UNL1        0.1076
     12 C         140.0763  139.6611  162.1877 C.ar    1  UNL1        0.2042
     13 O         138.7921  140.3926  161.9314 O.2     1  UNL1       -0.2863
     14 C         140.8344  139.0536  161.0448 C.ar    1  UNL1        0.0731
     15 C         140.3083  139.1777  159.6456 C.ar    1  UNL1        0.0252
     16 C         139.6123  140.6280  167.2720 C.2     1  UNL1        0.0049
     17 C         140.1384  140.5040  168.6712 C.2     1  UNL1        0.0130
     18 C         141.4226  139.7725  168.9275 C.3     1  UNL1        0.1517
     19 C         142.5836  139.1806  169.6704 C.3     1  UNL1        0.0483
     20 C         141.0677  140.1744  170.3284 C.3     1  UNL1        0.0483
     21 O         142.1807  139.1650  167.7846 O.3     1  UNL1       -0.4783
     22 C         141.1243  139.7130  156.1702 C.3     1  UNL1        0.2526
     23 O         140.5403  138.6942  157.1034 O.3     1  UNL1       -0.4687
     24 O         143.1087  137.2312  157.6161 O.3     1  UNL1       -0.4675
     25 C         142.4804  136.1475  156.7910 C.3     1  UNL1        0.2321
     26 C         143.1474  134.8088  156.6778 C.ar    1  UNL1        0.0213
     27 C         143.8593  134.2231  157.8612 C.ar    1  UNL1        0.0016
     28 C         144.5263  132.8843  157.7480 C.ar    1  UNL1        0.0294
     29 C         144.4815  132.1313  156.4515 C.ar    1  UNL1        0.1401
     30 F         145.1486  130.7925  156.3383 F       1  UNL1       -0.2042
     31 C         143.7697  132.7169  155.2682 C.ar    1  UNL1        0.0294
     32 C         143.1026  134.0556  155.3813 C.ar    1  UNL1        0.0016
     33 O         138.5601  140.8761  164.4735 O.3     1  UNL1       -0.4703
     34 C         138.4914  142.3617  164.6684 C.3     1  UNL1        0.2318
     35 C         139.3946  143.2640  163.8810 C.2     1  UNL1        0.0218
     36 C         138.8902  144.5895  163.3925 C.2     1  UNL1        0.0142
     37 C         139.7933  145.4918  162.6050 C.2     1  UNL1        0.0727
     38 O         141.2524  145.5733  162.9432 O.co2   1  UNL1       -0.5446
     39 O         139.2374  146.3127  161.4793 O.co2   1  UNL1       -0.5446
     40 C         139.0241  139.9092  159.3893 C.3     1  UNL1        0.0550
     41 C         139.0532  141.3173  158.8730 C.2     1  UNL1       -0.0298
     42 C         138.3139  141.6708  157.6166 C.2     1  UNL1       -0.0475
     43 C         138.3430  143.0788  157.1002 C.3     1  UNL1        0.0260
     44 C         137.5455  140.6162  156.8765 C.3     1  UNL1        0.0260
@<TRIPOS>UNITY_ATOM_ATTR
38 1
charge -1
@<TRIPOS>BOND
     1    22    23    1
     2    23     1    1
     3     1     2   ar
     4     2    24    1
     5    24    25    1
     6    25    26    1
     7    26    27   ar
     8    27    28   ar
     9    28    29   ar
    10    29    30    1
    11    29    31   ar
    12    31    32   ar
    13     2     3   ar
    14     3     4   ar
    15     4     5   ar
    16     5     6   ar
    17     6     7   ar
    18     7     8   ar
    19     8     9   ar
    20     9    10   ar
    21    10    33    1
    22    33    34    1
    23    34    35    1
    24    35    36    2
    25    36    37    1
    26    37    38   ar
    27    37    39   ar
    28    10    11   ar
    29    11    12   ar
    30    12    13    2
    31    12    14   ar
    32    14    15   ar
    33    15    40    1
    34    40    41    1
    35    41    42    2
    36    42    43    1
    37    42    44    1
    38     9    16    1
    39    16    17    2
    40    17    18    1
    41    18    19    1
    42    18    20    1
    43    18    21    1
    44    15     1   ar
    45    32    26   ar
    46    14     4   ar
    47    11     6   ar
    48    21     8    1
@<TRIPOS>MOLECULE
*****
 44 48 0 0 0
SMALL
GASTEIGER

@<TRIPOS>ATOM
      1 C         142.4301  144.1816  157.1040 C.ar    1  UNL1        0.1690
      2 C         141.1584  144.9433  157.3327 C.ar    1  UNL1        0.1754
      3 C         140.5599  145.0086  158.7067 C.ar    1  UNL1        0.0776
      4 C         141.2333  144.3121  159.8519 C.ar    1  UNL1        0.1512
      5 O         140.6348  144.3774  161.2257 O.2     1  UNL1       -0.4530
      6 C         141.3082  143.6809  162.3710 C.ar    1  UNL1        0.1543
      7 C         140.7097  143.7462  163.7449 C.ar    1  UNL1        0.0747
      8 C         141.3831  143.0497  164.8902 C.ar    1  UNL1        0.1445
      9 C         142.6549  142.2880  164.6615 C.ar    1  UNL1        0.0680
     10 C         143.2533  142.2227  163.2875 C.ar    1  UNL1        0.1478
     11 C         142.5800  142.9192  162.1423 C.ar    1  UNL1        0.1076
     12 C         143.1784  142.8539  160.7684 C.ar    1  UNL1        0.2042
     13 O         144.4502  142.0922  160.5397 O.2     1  UNL1       -0.2863
     14 C         142.5051  143.5504  159.6232 C.ar    1  UNL1        0.0731
     15 C         143.1035  143.4851  158.2493 C.ar    1  UNL1        0.0252
     16 C         143.3282  141.5915  165.8067 C.2     1  UNL1        0.0049
     17 C         142.7298  141.6568  167.1805 C.2     1  UNL1        0.0130
     18 C         141.4580  142.4185  167.4092 C.3     1  UNL1        0.1517
     19 C         140.2777  143.0097  168.1216 C.3     1  UNL1        0.0483
     20 C         141.7214  141.9274  168.8018 C.3     1  UNL1        0.0483
     21 O         140.7846  143.1150  166.2640 O.3     1  UNL1       -0.4783
     22 C         142.4594  143.1776  154.7081 C.3     1  UNL1        0.2526
     23 O         143.0286  144.1163  155.7302 O.3     1  UNL1       -0.4687
     24 O         140.4850  145.6398  156.1875 O.3     1  UNL1       -0.4675
     25 C         139.2006  146.3815  156.4115 C.3     1  UNL1        0.2321
     26 C         139.0913  147.8263  156.0235 C.ar    1  UNL1        0.0213
     27 C         139.6096  148.2870  154.6934 C.ar    1  UNL1        0.0016
     28 C         139.5004  149.7319  154.3055 C.ar    1  UNL1        0.0294
     29 C         138.8729  150.7160  155.2476 C.ar    1  UNL1        0.1401
     30 F         138.7636  152.1609  154.8597 F       1  UNL1       -0.2042
     31 C         138.3546  150.2553  156.5777 C.ar    1  UNL1        0.0294
     32 C         138.4638  148.8105  156.9657 C.ar    1  UNL1        0.0016
     33 O         144.5251  141.4610  163.0588 O.3     1  UNL1       -0.4703
     34 C         144.5086  139.9612  163.0432 C.3     1  UNL1        0.2318
     35 C         143.2220  139.2277  162.8047 C.2     1  UNL1        0.0218
     36 C         142.6333  138.3741  163.8885 C.2     1  UNL1        0.0142
     37 C         141.3468  137.6406  163.6501 C.2     1  UNL1        0.0727
     38 O         140.4485  137.3071  164.8041 O.co2   1  UNL1       -0.5446
     39 O         140.9585  137.2407  162.2574 O.co2   1  UNL1       -0.5446
     40 C         144.3753  142.7234  158.0206 C.3     1  UNL1        0.0550
     41 C         144.3544  141.4492  157.2293 C.2     1  UNL1       -0.0298
     42 C         145.4855  141.1257  156.2986 C.2     1  UNL1       -0.0475
     43 C         145.4646  139.8517  155.5073 C.3     1  UNL1        0.0260
     44 C         146.6374  142.0764  156.1594 C.3     1  UNL1        0.0260
@<TRIPOS>UNITY_ATOM_ATTR
38 1
charge -1
@<TRIPOS>BOND
     1    22    23    1
     2    23     1    1
     3     1     2   ar
     4     2    24    1
     5    24    25    1
     6    25    26    1
     7    26    27   ar
     8    27    28   ar
     9    28    29   ar
    10    29    30    1
    11    29    31   ar
    12    31    32   ar
    13     2     3   ar
    14     3     4   ar
    15     4     5   ar
    16     5     6   ar
    17     6     7   ar
    18     7     8   ar
    19     8     9   ar
    20     9    10   ar
    21    10    33    1
    22    33    34    1
    23    34    35    1
    24    35    36    2
    25    36    37    1
    26    37    38   ar
    27    37    39   ar
    28    10    11   ar
    29    11    12   ar
    30    12    13    2
    31    12    14   ar
    32    14    15   ar
    33    15    40    1
    34    40    41    1
    35    41    42    2
    36    42    43    1
    37    42    44    1
    38     9    16    1
    39    16    17    2
    40    17    18    1
    41    18    19    1
    42    18    20    1
    43    18    21    1
    44    15     1   ar
    45    32    26   ar
    46    14     4   ar
    47    11     6   ar
    48    21     8    1
@<TRIPOS>MOLECULE
*****
 44 48 0 0 0
SMALL
GASTEIGER

@<TRIPOS>ATOM
      1 C         142.4513  143.5166  156.8696 C.ar    1  UNL1        0.1690
      2 C         143.7781  142.8738  157.1459 C.ar    1  UNL1        0.1754
      3 C         144.1553  142.5060  158.5504 C.ar    1  UNL1        0.0776
      4 C         143.2057  142.7810  159.6785 C.ar    1  UNL1        0.1512
      5 O         143.5829  142.4132  161.0829 O.2     1  UNL1       -0.4530
      6 C         142.6333  142.6882  162.2110 C.ar    1  UNL1        0.1543
      7 C         143.0105  142.3204  163.6154 C.ar    1  UNL1        0.0747
      8 C         142.0609  142.5954  164.7436 C.ar    1  UNL1        0.1445
      9 C         140.7341  143.2382  164.4673 C.ar    1  UNL1        0.0680
     10 C         140.3569  143.6060  163.0628 C.ar    1  UNL1        0.1478
     11 C         141.3065  143.3310  161.9347 C.ar    1  UNL1        0.1076
     12 C         140.9293  143.6988  160.5302 C.ar    1  UNL1        0.2042
     13 O         139.6025  144.3417  160.2539 O.2     1  UNL1       -0.2863
     14 C         141.8789  143.4238  159.4022 C.ar    1  UNL1        0.0731
     15 C         141.5017  143.7916  157.9978 C.ar    1  UNL1        0.0252
     16 C         139.7845  143.5133  165.5953 C.2     1  UNL1        0.0049
     17 C         140.1617  143.1454  166.9997 C.2     1  UNL1        0.0130
     18 C         141.4885  142.5026  167.2761 C.3     1  UNL1        0.1517
     19 C         142.6222  141.8802  168.0359 C.3     1  UNL1        0.0483
     20 C         140.9326  142.5615  168.6680 C.3     1  UNL1        0.0483
     21 O         142.4381  142.2276  166.1480 O.3     1  UNL1       -0.4783
     22 C         142.6529  145.1143  154.8308 C.3     1  UNL1        0.2526
     23 O         142.0741  143.8844  155.4652 O.3     1  UNL1       -0.4687
     24 O         144.7277  142.5988  156.0179 O.3     1  UNL1       -0.4675
     25 C         146.1428  142.1963  156.3100 C.3     1  UNL1        0.2321
     26 C         147.2337  142.5298  155.3360 C.ar    1  UNL1        0.0213
     27 C         148.5192  141.7571  155.3561 C.ar    1  UNL1        0.0016
     28 C         149.6101  142.0907  154.3820 C.ar    1  UNL1        0.0294
     29 C         149.4155  143.1969  153.3879 C.ar    1  UNL1        0.1401
     30 F         150.5064  143.5305  152.4138 F       1  UNL1       -0.2042
     31 C         148.1300  143.9696  153.3678 C.ar    1  UNL1        0.0294
     32 C         147.0391  143.6361  154.3418 C.ar    1  UNL1        0.0016
     33 O         139.0301  144.2489  162.7865 O.3     1  UNL1       -0.4703
     34 C         137.7723  143.4350  162.8611 C.3     1  UNL1        0.2318
     35 C         137.7594  142.0256  162.3479 C.2     1  UNL1        0.0218
     36 C         138.0860  140.8886  163.2701 C.2     1  UNL1        0.0142
     37 C         138.0732  139.4792  162.7569 C.2     1  UNL1        0.0727
     38 O         137.6579  139.1996  161.3429 O.co2   1  UNL1       -0.5446
     39 O         138.4756  138.3493  163.6578 O.co2   1  UNL1       -0.5446
     40 C         140.1749  144.4345  157.7214 C.3     1  UNL1        0.0550
     41 C         140.1111  145.8744  157.3060 C.2     1  UNL1       -0.0298
     42 C         139.3100  146.2729  156.1020 C.2     1  UNL1       -0.0475
     43 C         139.2462  147.7127  155.6866 C.3     1  UNL1        0.0260
     44 C         138.5726  145.2314  155.3136 C.3     1  UNL1        0.0260
@<TRIPOS>UNITY_ATOM_ATTR
38 1
charge -1
@<TRIPOS>BOND
     1    22    23    1
     2    23     1    1
     3     1     2   ar
     4     2    24    1
     5    24    25    1
     6    25    26    1
     7    26    27   ar
     8    27    28   ar
     9    28    29   ar
    10    29    30    1
    11    29    31   ar
    12    31    32   ar
    13     2     3   ar
    14     3     4   ar
    15     4     5   ar
    16     5     6   ar
    17     6     7   ar
    18     7     8   ar
    19     8     9   ar
    20     9    10   ar
    21    10    33    1
    22    33    34    1
    23    34    35    1
    24    35    36    2
    25    36    37    1
    26    37    38   ar
    27    37    39   ar
    28    10    11   ar
    29    11    12   ar
    30    12    13    2
    31    12    14   ar
    32    14    15   ar
    33    15    40    1
    34    40    41    1
    35    41    42    2
    36    42    43    1
    37    42    44    1
    38     9    16    1
    39    16    17    2
    40    17    18    1
    41    18    19    1
    42    18    20    1
    43    18    21    1
    44    15     1   ar
    45    32    26   ar
    46    14     4   ar
    47    11     6   ar
    48    21     8    1
@<TRIPOS>MOLECULE
*****
 44 48 0 0 0
SMALL
GASTEIGER

@<TRIPOS>ATOM
      1 C         139.9186  139.4520  164.4688 C.ar    1  UNL1        0.1690
      2 C         141.2176  138.7021  164.4513 C.ar    1  UNL1        0.1754
      3 C         141.8125  138.2630  163.1461 C.ar    1  UNL1        0.0776
      4 C         141.1085  138.5738  161.8586 C.ar    1  UNL1        0.1512
      5 O         141.7034  138.1347  160.5536 O.2     1  UNL1       -0.4530
      6 C         140.9994  138.4455  159.2660 C.ar    1  UNL1        0.1543
      7 C         141.5943  138.0065  157.9610 C.ar    1  UNL1        0.0747
      8 C         140.8903  138.3173  156.6734 C.ar    1  UNL1        0.1445
      9 C         139.5913  139.0671  156.6909 C.ar    1  UNL1        0.0680
     10 C         138.9964  139.5062  157.9961 C.ar    1  UNL1        0.1478
     11 C         139.7004  139.1954  159.2836 C.ar    1  UNL1        0.1076
     12 C         139.1055  139.6345  160.5887 C.ar    1  UNL1        0.2042
     13 O         137.8065  140.3844  160.6063 O.2     1  UNL1       -0.2863
     14 C         139.8095  139.3237  161.8762 C.ar    1  UNL1        0.0731
     15 C         139.2146  139.7628  163.1812 C.ar    1  UNL1        0.0252
     16 C         138.8873  139.3780  155.4034 C.2     1  UNL1        0.0049
     17 C         139.4822  138.9389  154.0984 C.2     1  UNL1        0.0130
     18 C         140.7812  138.1890  154.0808 C.3     1  UNL1        0.1517
     19 C         141.9803  137.4590  153.5523 C.3     1  UNL1        0.0483
     20 C         140.4936  138.2463  152.6098 C.3     1  UNL1        0.0483
     21 O         141.4853  137.8782  155.3683 O.3     1  UNL1       -0.4783
     22 C         138.4715  138.9443  166.5659 C.3     1  UNL1        0.2526
     23 O         139.3237  139.8911  165.7739 O.3     1  UNL1       -0.4687
     24 O         141.9216  138.3913  165.7388 O.3     1  UNL1       -0.4675
     25 C         142.9743  139.3231  166.2619 C.3     1  UNL1        0.2321
     26 C         143.3495  140.5461  165.4788 C.ar    1  UNL1        0.0213
     27 C         144.4950  140.4953  164.5117 C.ar    1  UNL1        0.0016
     28 C         144.8703  141.7184  163.7286 C.ar    1  UNL1        0.0294
     29 C         144.1000  142.9923  163.9125 C.ar    1  UNL1        0.1401
     30 F         144.4753  144.2155  163.1294 F       1  UNL1       -0.2042
     31 C         142.9545  143.0432  164.8796 C.ar    1  UNL1        0.0294
     32 C         142.5793  141.8201  165.6627 C.ar    1  UNL1        0.0016
     33 O         137.6974  140.2561  158.0136 O.3     1  UNL1       -0.4703
     34 C         137.6180  141.6326  157.4230 C.3     1  UNL1        0.2318
     35 C         138.7626  142.5876  157.5900 C.2     1  UNL1        0.0218
     36 C         139.1009  143.1222  158.9500 C.2     1  UNL1        0.0142
     37 C         140.2455  144.0772  159.1170 C.2     1  UNL1        0.0727
     38 O         141.6547  143.5994  158.9279 O.co2   1  UNL1       -0.5446
     39 O         139.9808  145.5101  159.4733 O.co2   1  UNL1       -0.5446
     40 C         137.9156  140.5127  163.1988 C.3     1  UNL1        0.0550
     41 C         137.7100  141.6340  164.1737 C.2     1  UNL1       -0.0298
     42 C         137.9329  143.0532  163.7423 C.2     1  UNL1       -0.0475
     43 C         137.7274  144.1745  164.7172 C.3     1  UNL1        0.0260
     44 C         138.3613  143.3511  162.3360 C.3     1  UNL1        0.0260
@<TRIPOS>UNITY_ATOM_ATTR
38 1
charge -1
@<TRIPOS>BOND
     1    22    23    1
     2    23     1    1
     3     1     2   ar
     4     2    24    1
     5    24    25    1
     6    25    26    1
     7    26    27   ar
     8    27    28   ar
     9    28    29   ar
    10    29    30    1
    11    29    31   ar
    12    31    32   ar
    13     2     3   ar
    14     3     4   ar
    15     4     5   ar
    16     5     6   ar
    17     6     7   ar
    18     7     8   ar
    19     8     9   ar
    20     9    10   ar
    21    10    33    1
    22    33    34    1
    23    34    35    1
    24    35    36    2
    25    36    37    1
    26    37    38   ar
    27    37    39   ar
    28    10    11   ar
    29    11    12   ar
    30    12    13    2
    31    12    14   ar
    32    14    15   ar
    33    15    40    1
    34    40    41    1
    35    41    42    2
    36    42    43    1
    37    42    44    1
    38     9    16    1
    39    16    17    2
    40    17    18    1
    41    18    19    1
    42    18    20    1
    43    18    21    1
    44    15     1   ar
    45    32    26   ar
    46    14     4   ar
    47    11     6   ar
    48    21     8    1
@<TRIPOS>MOLECULE
*****
 44 48 0 0 0
SMALL
GASTEIGER

@<TRIPOS>ATOM
      1 C         141.8019  138.0962  163.8242 C.ar    1  UNL1        0.1690
      2 C         140.3128  137.9159  163.8156 C.ar    1  UNL1        0.1754
      3 C         139.5526  138.0169  162.5264 C.ar    1  UNL1        0.0776
      4 C         140.2814  138.2983  161.2460 C.ar    1  UNL1        0.1512
      5 O         139.5212  138.3994  159.9569 O.2     1  UNL1       -0.4530
      6 C         140.2500  138.6808  158.6763 C.ar    1  UNL1        0.1543
      7 C         139.4898  138.7818  157.3873 C.ar    1  UNL1        0.0747
      8 C         140.2186  139.0632  156.1067 C.ar    1  UNL1        0.1445
      9 C         141.7077  139.2435  156.1154 C.ar    1  UNL1        0.0680
     10 C         142.4680  139.1425  157.4046 C.ar    1  UNL1        0.1478
     11 C         141.7391  138.8611  158.6850 C.ar    1  UNL1        0.1076
     12 C         142.4994  138.7600  159.9742 C.ar    1  UNL1        0.2042
     13 O         143.9885  138.9403  159.9828 O.2     1  UNL1       -0.2863
     14 C         141.7705  138.4786  161.2546 C.ar    1  UNL1        0.0731
     15 C         142.5308  138.3776  162.5437 C.ar    1  UNL1        0.0252
     16 C         142.4366  139.5249  154.8350 C.2     1  UNL1        0.0049
     17 C         141.6763  139.6260  153.5459 C.2     1  UNL1        0.0130
     18 C         140.1872  139.4457  153.5372 C.3     1  UNL1        0.1517
     19 C         138.7818  139.3518  153.0216 C.3     1  UNL1        0.0483
     20 C         140.4280  139.6944  152.0777 C.3     1  UNL1        0.0483
     21 O         139.4584  139.1643  154.8177 O.3     1  UNL1       -0.4783
     22 C         142.4943  139.1109  166.1134 C.3     1  UNL1        0.2526
     23 O         142.5622  137.9951  165.1133 O.3     1  UNL1       -0.4687
     24 O         139.5840  137.6345  165.0960 O.3     1  UNL1       -0.4675
     25 C         138.5215  138.5777  165.5771 C.3     1  UNL1        0.2321
     26 C         138.6690  140.0529  165.3489 C.ar    1  UNL1        0.0213
     27 C         137.8620  140.7311  164.2818 C.ar    1  UNL1        0.0016
     28 C         138.0095  142.2064  164.0537 C.ar    1  UNL1        0.0294
     29 C         138.9639  143.0033  164.8926 C.ar    1  UNL1        0.1401
     30 F         139.1114  144.4785  164.6645 F       1  UNL1       -0.2042
     31 C         139.7709  142.3251  165.9597 C.ar    1  UNL1        0.0294
     32 C         139.6235  140.8499  166.1879 C.ar    1  UNL1        0.0016
     33 O         143.9571  139.3228  157.4132 O.3     1  UNL1       -0.4703
     34 C         144.5461  140.7008  157.3508 C.3     1  UNL1        0.2318
     35 C         145.6141  141.0152  156.3455 C.2     1  UNL1        0.0218
     36 C         146.5987  142.1139  156.6161 C.2     1  UNL1        0.0142
     37 C         147.6668  142.4282  155.6109 C.2     1  UNL1        0.0727
     38 O         148.9978  141.7413  155.6911 O.co2   1  UNL1       -0.5446
     39 O         147.4038  143.4296  154.5254 O.co2   1  UNL1       -0.5446
     40 C         144.0199  138.5579  162.5523 C.3     1  UNL1        0.0550
     41 C         144.6535  139.5184  163.5147 C.2     1  UNL1       -0.0298
     42 C         144.8844  140.9438  163.1090 C.2     1  UNL1       -0.0475
     43 C         145.5180  141.9043  164.0713 C.3     1  UNL1        0.0260
     44 C         144.4818  141.4089  161.7408 C.3     1  UNL1        0.0260
@<TRIPOS>UNITY_ATOM_ATTR
38 1
charge -1
@<TRIPOS>BOND
     1    22    23    1
     2    23     1    1
     3     1     2   ar
     4     2    24    1
     5    24    25    1
     6    25    26    1
     7    26    27   ar
     8    27    28   ar
     9    28    29   ar
    10    29    30    1
    11    29    31   ar
    12    31    32   ar
    13     2     3   ar
    14     3     4   ar
    15     4     5   ar
    16     5     6   ar
    17     6     7   ar
    18     7     8   ar
    19     8     9   ar
    20     9    10   ar
    21    10    33    1
    22    33    34    1
    23    34    35    1
    24    35    36    2
    25    36    37    1
    26    37    38   ar
    27    37    39   ar
    28    10    11   ar
    29    11    12   ar
    30    12    13    2
    31    12    14   ar
    32    14    15   ar
    33    15    40    1
    34    40    41    1
    35    41    42    2
    36    42    43    1
    37    42    44    1
    38     9    16    1
    39    16    17    2
    40    17    18    1
    41    18    19    1
    42    18    20    1
    43    18    21    1
    44    15     1   ar
    45    32    26   ar
    46    14     4   ar
    47    11     6   ar
    48    21     8    1
@<TRIPOS>MOLECULE
*****
 44 48 0 0 0
SMALL
GASTEIGER

@<TRIPOS>ATOM
      1 C         141.9750  139.1286  164.3282 C.ar    1  UNL1        0.1690
      2 C         140.5708  138.6032  164.2828 C.ar    1  UNL1        0.1754
      3 C         139.9174  138.3224  162.9620 C.ar    1  UNL1        0.0776
      4 C         140.6683  138.5669  161.6868 C.ar    1  UNL1        0.1512
      5 O         140.0149  138.2861  160.3661 O.2     1  UNL1       -0.4530
      6 C         140.7658  138.5306  159.0907 C.ar    1  UNL1        0.1543
      7 C         140.1124  138.2497  157.7701 C.ar    1  UNL1        0.0747
      8 C         140.8633  138.4943  156.4947 C.ar    1  UNL1        0.1445
      9 C         142.2675  139.0197  156.5401 C.ar    1  UNL1        0.0680
     10 C         142.9209  139.3005  157.8609 C.ar    1  UNL1        0.1478
     11 C         142.1700  139.0560  159.1361 C.ar    1  UNL1        0.1076
     12 C         142.8234  139.3369  160.4569 C.ar    1  UNL1        0.2042
     13 O         144.2276  139.8623  160.5023 O.2     1  UNL1       -0.2863
     14 C         142.0725  139.0923  161.7322 C.ar    1  UNL1        0.0731
     15 C         142.7259  139.3732  163.0528 C.ar    1  UNL1        0.0252
     16 C         143.0184  139.2642  155.2649 C.2     1  UNL1        0.0049
     17 C         142.3650  138.9833  153.9442 C.2     1  UNL1        0.0130
     18 C         140.9608  138.4579  153.8988 C.3     1  UNL1        0.1517
     19 C         139.6605  137.9571  153.3435 C.3     1  UNL1        0.0483
     20 C         141.2601  138.5285  152.4307 C.3     1  UNL1        0.0483
     21 O         140.2099  138.2134  155.1741 O.3     1  UNL1       -0.4783
     22 C         143.3878  138.3260  166.3553 C.3     1  UNL1        0.2526
     23 O         142.6284  139.4095  165.6488 O.3     1  UNL1       -0.4687
     24 O         139.8199  138.3587  165.5580 O.3     1  UNL1       -0.4675
     25 C         138.8266  139.3697  166.0492 C.3     1  UNL1        0.2321
     26 C         139.0127  140.8225  165.7257 C.ar    1  UNL1        0.0213
     27 C         140.0450  141.6277  166.4579 C.ar    1  UNL1        0.0016
     28 C         140.2310  143.0806  166.1342 C.ar    1  UNL1        0.0294
     29 C         139.3849  143.7281  165.0785 C.ar    1  UNL1        0.1401
     30 F         139.5709  145.1810  164.7549 F       1  UNL1       -0.2042
     31 C         138.3526  142.9229  164.3463 C.ar    1  UNL1        0.0294
     32 C         138.1666  141.4701  164.6699 C.ar    1  UNL1        0.0016
     33 O         144.3252  139.8259  157.9063 O.3     1  UNL1       -0.4703
     34 C         144.5889  141.2829  157.6661 C.3     1  UNL1        0.2318
     35 C         143.4498  142.2586  157.6499 C.2     1  UNL1        0.0218
     36 C         143.2067  143.1474  158.8334 C.2     1  UNL1        0.0142
     37 C         142.0675  144.1232  158.8171 C.2     1  UNL1        0.0727
     38 O         141.1224  144.1534  157.6527 O.co2   1  UNL1       -0.5446
     39 O         141.8734  145.0688  159.9653 O.co2   1  UNL1       -0.5446
     40 C         144.1301  139.8986  163.0982 C.3     1  UNL1        0.0550
     41 C         144.4820  141.0188  164.0317 C.2     1  UNL1       -0.0298
     42 C         143.9690  142.4036  163.7683 C.2     1  UNL1       -0.0475
     43 C         144.3208  143.5238  164.7017 C.3     1  UNL1        0.0260
     44 C         143.1042  142.6681  162.5715 C.3     1  UNL1        0.0260
@<TRIPOS>UNITY_ATOM_ATTR
38 1
charge -1
@<TRIPOS>BOND
     1    22    23    1
     2    23     1    1
     3     1     2   ar
     4     2    24    1
     5    24    25    1
     6    25    26    1
     7    26    27   ar
     8    27    28   ar
     9    28    29   ar
    10    29    30    1
    11    29    31   ar
    12    31    32   ar
    13     2     3   ar
    14     3     4   ar
    15     4     5   ar
    16     5     6   ar
    17     6     7   ar
    18     7     8   ar
    19     8     9   ar
    20     9    10   ar
    21    10    33    1
    22    33    34    1
    23    34    35    1
    24    35    36    2
    25    36    37    1
    26    37    38   ar
    27    37    39   ar
    28    10    11   ar
    29    11    12   ar
    30    12    13    2
    31    12    14   ar
    32    14    15   ar
    33    15    40    1
    34    40    41    1
    35    41    42    2
    36    42    43    1
    37    42    44    1
    38     9    16    1
    39    16    17    2
    40    17    18    1
    41    18    19    1
    42    18    20    1
    43    18    21    1
    44    15     1   ar
    45    32    26   ar
    46    14     4   ar
    47    11     6   ar
    48    21     8    1
@<TRIPOS>MOLECULE
*****
 44 48 0 0 0
SMALL
GASTEIGER

@<TRIPOS>ATOM
      1 C         138.6217  140.6115  161.6491 C.ar    1  UNL1        0.1690
      2 C         138.4328  142.0894  161.4751 C.ar    1  UNL1        0.1754
      3 C         139.2801  142.8433  160.4934 C.ar    1  UNL1        0.0776
      4 C         140.3162  142.1194  159.6857 C.ar    1  UNL1        0.1512
      5 O         141.1635  142.8734  158.7041 O.2     1  UNL1       -0.4530
      6 C         142.1997  142.1495  157.8963 C.ar    1  UNL1        0.1543
      7 C         143.0469  142.9035  156.9147 C.ar    1  UNL1        0.0747
      8 C         144.0831  142.1796  156.1069 C.ar    1  UNL1        0.1445
      9 C         144.2720  140.7017  156.2809 C.ar    1  UNL1        0.0680
     10 C         143.4247  139.9478  157.2627 C.ar    1  UNL1        0.1478
     11 C         142.3886  140.6716  158.0703 C.ar    1  UNL1        0.1076
     12 C         141.5413  139.9177  159.0521 C.ar    1  UNL1        0.2042
     13 O         141.7302  138.4398  159.2261 O.2     1  UNL1       -0.2863
     14 C         140.5052  140.6416  159.8597 C.ar    1  UNL1        0.0731
     15 C         139.6579  139.8876  160.8414 C.ar    1  UNL1        0.0252
     16 C         145.3081  139.9778  155.4733 C.2     1  UNL1        0.0049
     17 C         146.1553  140.7318  154.4916 C.2     1  UNL1        0.0130
     18 C         145.9664  142.2096  154.3176 C.3     1  UNL1        0.1517
     19 C         146.1609  143.6043  153.8007 C.3     1  UNL1        0.0483
     20 C         147.0701  141.9701  153.3304 C.3     1  UNL1        0.0483
     21 O         144.9303  142.9335  155.1253 O.3     1  UNL1       -0.4783
     22 C         137.9996  140.0303  164.1037 C.3     1  UNL1        0.2526
     23 O         137.7745  139.8575  162.6308 O.3     1  UNL1       -0.4687
     24 O         137.3967  142.8132  162.2828 O.3     1  UNL1       -0.4675
     25 C         137.8167  143.7232  163.3989 C.3     1  UNL1        0.2321
     26 C         139.2731  143.9797  163.6498 C.ar    1  UNL1        0.0213
     27 C         140.0559  143.0555  164.5347 C.ar    1  UNL1        0.0016
     28 C         141.5124  143.3121  164.7855 C.ar    1  UNL1        0.0294
     29 C         142.1860  144.4928  164.1514 C.ar    1  UNL1        0.1401
     30 F         143.6425  144.7494  164.4022 F       1  UNL1       -0.2042
     31 C         141.4032  145.4170  163.2664 C.ar    1  UNL1        0.0294
     32 C         139.9468  145.1604  163.0156 C.ar    1  UNL1        0.0016
     33 O         143.6136  138.4699  157.4367 O.3     1  UNL1       -0.4703
     34 C         143.0767  137.5190  156.4084 C.3     1  UNL1        0.2318
     35 C         141.8667  137.8898  155.6032 C.2     1  UNL1        0.0218
     36 C         140.4984  137.5134  156.0889 C.2     1  UNL1        0.0142
     37 C         139.2884  137.8842  155.2836 C.2     1  UNL1        0.0727
     38 O         138.0027  137.1352  155.4734 O.co2   1  UNL1       -0.5446
     39 O         139.3640  139.0042  154.2886 O.co2   1  UNL1       -0.5446
     40 C         139.8468  138.4098  161.0154 C.3     1  UNL1        0.0550
     41 C         139.8788  137.8147  162.3920 C.2     1  UNL1       -0.0298
     42 C         141.1853  137.6617  163.1128 C.2     1  UNL1       -0.0475
     43 C         141.2173  137.0667  164.4893 C.3     1  UNL1        0.0260
     44 C         142.4599  138.1039  162.4570 C.3     1  UNL1        0.0260
@<TRIPOS>UNITY_ATOM_ATTR
38 1
charge -1
@<TRIPOS>BOND
     1    22    23    1
     2    23     1    1
     3     1     2   ar
     4     2    24    1
     5    24    25    1
     6    25    26    1
     7    26    27   ar
     8    27    28   ar
     9    28    29   ar
    10    29    30    1
    11    29    31   ar
    12    31    32   ar
    13     2     3   ar
    14     3     4   ar
    15     4     5   ar
    16     5     6   ar
    17     6     7   ar
    18     7     8   ar
    19     8     9   ar
    20     9    10   ar
    21    10    33    1
    22    33    34    1
    23    34    35    1
    24    35    36    2
    25    36    37    1
    26    37    38   ar
    27    37    39   ar
    28    10    11   ar
    29    11    12   ar
    30    12    13    2
    31    12    14   ar
    32    14    15   ar
    33    15    40    1
    34    40    41    1
    35    41    42    2
    36    42    43    1
    37    42    44    1
    38     9    16    1
    39    16    17    2
    40    17    18    1
    41    18    19    1
    42    18    20    1
    43    18    21    1
    44    15     1   ar
    45    32    26   ar
    46    14     4   ar
    47    11     6   ar
    48    21     8    1
