@<TRIPOS>MOLECULE
*****
 32 34 0 0 0
SMALL
GASTEIGER

@<TRIPOS>ATOM
      1 C         139.9476  140.6674  167.5940 C.3     1  UNL1        0.0161
      2 C         141.1212  140.4642  168.5058 C.3     1  UNL1        0.1083
      3 C         142.0330  140.3950  167.3168 C.ar    1  UNL1       -0.0127
      4 C         142.5707  139.0713  166.8600 C.ar    1  UNL1       -0.0033
      5 C         143.4825  139.0021  165.6709 C.ar    1  UNL1        0.0064
      6 C         143.8567  140.2566  164.9387 C.ar    1  UNL1        0.0345
      7 BR        144.7685  140.1875  163.7496 Br      1  UNL1       -0.0490
      8 C         143.3189  141.5804  165.3955 C.ar    1  UNL1        0.0064
      9 C         142.4071  141.6496  166.5845 C.ar    1  UNL1       -0.0033
     10 C         142.2947  140.2610  169.4176 C.3     1  UNL1        0.0138
     11 C         142.6465  138.8819  169.8912 C.3     1  UNL1        0.0009
     12 C         143.1165  141.4369  169.8558 C.3     1  UNL1        0.0009
     13 C         140.2093  140.5334  169.6948 C.2     1  UNL1        0.3199
     14 O         140.1513  139.3892  170.6630 O.2     1  UNL1       -0.2498
     15 C         139.9315  142.9566  170.5897 C.3     1  UNL1        0.2556
     16 O         139.3555  141.7468  169.9155 O.3     1  UNL1       -0.4442
     17 C         139.0168  139.5274  167.3040 C.3     1  UNL1        0.0182
     18 C         138.6346  139.2126  165.8881 C.3     1  UNL1        0.0721
     19 N         138.9110  140.2056  164.7983 N.3     1  UNL1       -0.2727
     20 C         137.9243  141.2983  164.5113 C.3     1  UNL1        0.0724
     21 C         138.2007  142.2911  163.4214 C.3     1  UNL1        0.0218
     22 C         139.4638  142.1913  162.6186 C.3     1  UNL1        0.0281
     23 C         140.4505  141.0987  162.9056 C.3     1  UNL1        0.0218
     24 C         140.1742  140.1058  163.9954 C.3     1  UNL1        0.0724
     25 C         139.7402  143.1843  161.5287 C.ar    1  UNL1        0.0115
     26 C         139.5018  142.8108  160.0957 C.ar    1  UNL1       -0.0013
     27 C         139.7781  143.8037  159.0058 C.ar    1  UNL1       -0.0001
     28 C         140.2929  145.1702  159.3491 C.ar    1  UNL1        0.0031
     29 C         140.5313  145.5437  160.7822 C.ar    1  UNL1        0.0366
     30 C         140.2550  144.5507  161.8720 C.ar    1  UNL1        0.1347
     31 O         140.4934  144.9242  163.3051 O.3     1  UNL1       -0.4717
     32 C         141.8947  145.0264  163.8303 C.3     1  UNL1        0.2525
@<TRIPOS>BOND
     1    15    16    1
     2    16    13    1
     3    13    14    2
     4    13     2    1
     5     2     1    1
     6     1    17    1
     7    17    18    1
     8    18    19    1
     9    19    20    1
    10    20    21    1
    11    21    22    1
    12    22    25    1
    13    25    26   ar
    14    26    27   ar
    15    27    28   ar
    16    28    29   ar
    17    29    30   ar
    18    30    31    1
    19    31    32    1
    20    22    23    1
    21    23    24    1
    22     2     3    1
    23     3     4   ar
    24     4     5   ar
    25     5     6   ar
    26     6     7    1
    27     6     8   ar
    28     8     9   ar
    29     2    10    1
    30    10    11    1
    31    10    12    1
    32    24    19    1
    33     9     3   ar
    34    30    25   ar
@<TRIPOS>MOLECULE
*****
 32 34 0 0 0
SMALL
GASTEIGER

@<TRIPOS>ATOM
      1 C         139.7957  140.6324  167.7951 C.3     1  UNL1        0.0161
      2 C         141.0132  140.4152  168.6438 C.3     1  UNL1        0.1083
      3 C         141.8656  140.3732  167.4103 C.ar    1  UNL1       -0.0127
      4 C         142.4461  141.6404  166.8562 C.ar    1  UNL1       -0.0033
      5 C         143.2985  141.5983  165.6226 C.ar    1  UNL1        0.0064
      6 C         143.5704  140.2889  164.9432 C.ar    1  UNL1        0.0345
      7 BR        144.4228  140.2468  163.7096 Br      1  UNL1       -0.0490
      8 C         142.9899  139.0217  165.4973 C.ar    1  UNL1        0.0064
      9 C         142.1375  139.0638  166.7308 C.ar    1  UNL1       -0.0033
     10 C         142.2307  140.1981  169.4926 C.3     1  UNL1        0.0138
     11 C         142.6874  138.8041  169.8063 C.3     1  UNL1        0.0009
     12 C         142.9917  141.3748  170.0276 C.3     1  UNL1        0.0009
     13 C         140.1608  140.4573  169.8773 C.2     1  UNL1        0.3199
     14 O         140.1646  139.2999  170.8315 O.2     1  UNL1       -0.2498
     15 C         139.9384  142.9483  170.5814 C.3     1  UNL1        0.2556
     16 O         139.3046  141.6569  170.1568 O.3     1  UNL1       -0.4442
     17 C         138.7695  139.5462  167.6637 C.3     1  UNL1        0.0182
     18 C         138.0406  139.3560  166.3666 C.3     1  UNL1        0.0721
     19 N         138.8109  139.1268  165.1000 N.3     1  UNL1       -0.2727
     20 C         139.4136  140.2890  164.3679 C.3     1  UNL1        0.0724
     21 C         140.1838  140.0597  163.1014 C.3     1  UNL1        0.0218
     22 C         140.3513  138.6682  162.5669 C.3     1  UNL1        0.0281
     23 C         139.7485  137.5060  163.2990 C.3     1  UNL1        0.0218
     24 C         138.9783  137.7353  164.5655 C.3     1  UNL1        0.0724
     25 C         141.1216  138.4389  161.3003 C.ar    1  UNL1        0.0115
     26 C         142.5409  137.9578  161.3624 C.ar    1  UNL1       -0.0013
     27 C         143.3112  137.7285  160.0958 C.ar    1  UNL1       -0.0001
     28 C         142.6620  137.9804  158.7672 C.ar    1  UNL1        0.0031
     29 C         141.2426  138.4615  158.7052 C.ar    1  UNL1        0.0366
     30 C         140.4724  138.6907  159.9717 C.ar    1  UNL1        0.1347
     31 O         139.0529  139.1719  159.9098 O.3     1  UNL1       -0.4717
     32 C         138.6173  140.0819  158.7998 C.3     1  UNL1        0.2525
@<TRIPOS>BOND
     1    15    16    1
     2    16    13    1
     3    13    14    2
     4    13     2    1
     5     2     1    1
     6     1    17    1
     7    17    18    1
     8    18    19    1
     9    19    20    1
    10    20    21    1
    11    21    22    1
    12    22    25    1
    13    25    26   ar
    14    26    27   ar
    15    27    28   ar
    16    28    29   ar
    17    29    30   ar
    18    30    31    1
    19    31    32    1
    20    22    23    1
    21    23    24    1
    22     2     3    1
    23     3     4   ar
    24     4     5   ar
    25     5     6   ar
    26     6     7    1
    27     6     8   ar
    28     8     9   ar
    29     2    10    1
    30    10    11    1
    31    10    12    1
    32    24    19    1
    33     9     3   ar
    34    30    25   ar
@<TRIPOS>MOLECULE
*****
 32 34 0 0 0
SMALL
GASTEIGER

@<TRIPOS>ATOM
      1 C         144.4864  142.8934  161.5440 C.3     1  UNL1        0.0161
      2 C         143.7282  141.8410  160.7908 C.3     1  UNL1        0.1083
      3 C         143.5954  141.0359  162.0494 C.ar    1  UNL1       -0.0127
      4 C         144.8215  140.5195  162.7423 C.ar    1  UNL1       -0.0033
      5 C         144.6887  139.7143  164.0009 C.ar    1  UNL1        0.0064
      6 C         143.3299  139.4255  164.5666 C.ar    1  UNL1        0.0345
      7 BR        143.1971  138.6203  165.8253 Br      1  UNL1       -0.0490
      8 C         142.1038  139.9419  163.8737 C.ar    1  UNL1        0.0064
      9 C         142.2365  140.7470  162.6152 C.ar    1  UNL1       -0.0033
     10 C         142.9699  140.7886  160.0376 C.3     1  UNL1        0.0138
     11 C         143.5863  139.4407  159.8068 C.3     1  UNL1        0.0009
     12 C         141.5952  141.0840  159.5150 C.3     1  UNL1        0.0009
     13 C         143.8609  142.6461  159.5322 C.2     1  UNL1        0.3199
     14 O         142.9943  143.8516  159.3181 O.2     1  UNL1       -0.2498
     15 C         144.5359  142.4199  157.0336 C.3     1  UNL1        0.2556
     16 O         144.8603  142.2458  158.4877 O.3     1  UNL1       -0.4442
     17 C         143.7471  144.0026  162.2320 C.3     1  UNL1        0.0182
     18 C         143.9876  144.2745  163.6874 C.3     1  UNL1        0.0721
     19 N         143.1324  143.6106  164.7257 N.3     1  UNL1       -0.2727
     20 C         141.6383  143.7170  164.6466 C.3     1  UNL1        0.0724
     21 C         140.7832  143.0531  165.6849 C.3     1  UNL1        0.0218
     22 C         141.4222  142.2829  166.8022 C.3     1  UNL1        0.0281
     23 C         142.9163  142.1766  166.8813 C.3     1  UNL1        0.0218
     24 C         143.7714  142.8404  165.8431 C.3     1  UNL1        0.0724
     25 C         140.5670  141.6190  167.8406 C.ar    1  UNL1        0.0115
     26 C         139.7266  140.4322  167.4731 C.ar    1  UNL1       -0.0013
     27 C         138.8715  139.7683  168.5114 C.ar    1  UNL1       -0.0001
     28 C         138.8567  140.2914  169.9171 C.ar    1  UNL1        0.0031
     29 C         139.6972  141.4783  170.2846 C.ar    1  UNL1        0.0366
     30 C         140.5523  142.1421  169.2463 C.ar    1  UNL1        0.1347
     31 O         141.3928  143.3290  169.6138 O.3     1  UNL1       -0.4717
     32 C         142.6480  143.1405  170.4130 C.3     1  UNL1        0.2525
@<TRIPOS>BOND
     1    15    16    1
     2    16    13    1
     3    13    14    2
     4    13     2    1
     5     2     1    1
     6     1    17    1
     7    17    18    1
     8    18    19    1
     9    19    20    1
    10    20    21    1
    11    21    22    1
    12    22    25    1
    13    25    26   ar
    14    26    27   ar
    15    27    28   ar
    16    28    29   ar
    17    29    30   ar
    18    30    31    1
    19    31    32    1
    20    22    23    1
    21    23    24    1
    22     2     3    1
    23     3     4   ar
    24     4     5   ar
    25     5     6   ar
    26     6     7    1
    27     6     8   ar
    28     8     9   ar
    29     2    10    1
    30    10    11    1
    31    10    12    1
    32    24    19    1
    33     9     3   ar
    34    30    25   ar
@<TRIPOS>MOLECULE
*****
 32 34 0 0 0
SMALL
GASTEIGER

@<TRIPOS>ATOM
      1 C         141.7152  139.8808  167.1201 C.3     1  UNL1        0.0161
      2 C         141.6568  141.1113  167.9759 C.3     1  UNL1        0.1083
      3 C         142.2042  141.9260  166.8417 C.ar    1  UNL1       -0.0127
      4 C         143.5889  142.4964  166.9279 C.ar    1  UNL1       -0.0033
      5 C         144.1363  143.3112  165.7936 C.ar    1  UNL1        0.0064
      6 C         143.2991  143.5556  164.5733 C.ar    1  UNL1        0.0345
      7 BR        143.8465  144.3704  163.4390 Br      1  UNL1       -0.0490
      8 C         141.9145  142.9852  164.4871 C.ar    1  UNL1        0.0064
      9 C         141.3670  142.1704  165.6213 C.ar    1  UNL1       -0.0033
     10 C         141.5984  142.3417  168.8317 C.3     1  UNL1        0.0138
     11 C         142.7509  142.6879  169.7272 C.3     1  UNL1        0.0009
     12 C         140.3875  143.2262  168.7920 C.3     1  UNL1        0.0009
     13 C         141.1094  140.2965  169.1101 C.2     1  UNL1        0.3199
     14 O         141.9744  139.9838  170.2949 O.2     1  UNL1       -0.2498
     15 C         138.6871  140.2945  170.0495 C.3     1  UNL1        0.2556
     16 O         139.6968  139.7943  169.0594 O.3     1  UNL1       -0.4442
     17 C         142.9442  139.0207  167.1260 C.3     1  UNL1        0.0182
     18 C         143.3564  138.2932  165.8807 C.3     1  UNL1        0.0721
     19 N         143.3450  139.0025  164.5590 N.3     1  UNL1       -0.2727
     20 C         144.5274  139.8241  164.1386 C.3     1  UNL1        0.0724
     21 C         144.5160  140.5334  162.8170 C.3     1  UNL1        0.0218
     22 C         143.3221  140.4212  161.9158 C.3     1  UNL1        0.0281
     23 C         142.1397  139.5996  162.3363 C.3     1  UNL1        0.0218
     24 C         142.1511  138.8903  163.6579 C.3     1  UNL1        0.0724
     25 C         143.3107  141.1306  160.5941 C.ar    1  UNL1        0.0115
     26 C         143.0587  142.6081  160.5382 C.ar    1  UNL1       -0.0013
     27 C         143.0474  143.3175  159.2165 C.ar    1  UNL1       -0.0001
     28 C         143.2880  142.5492  157.9508 C.ar    1  UNL1        0.0031
     29 C         143.5400  141.0716  158.0069 C.ar    1  UNL1        0.0366
     30 C         143.5514  140.3623  159.3285 C.ar    1  UNL1        0.1347
     31 O         143.8034  138.8846  159.3845 O.3     1  UNL1       -0.4717
     32 C         142.7569  137.9263  158.8980 C.3     1  UNL1        0.2525
@<TRIPOS>BOND
     1    15    16    1
     2    16    13    1
     3    13    14    2
     4    13     2    1
     5     2     1    1
     6     1    17    1
     7    17    18    1
     8    18    19    1
     9    19    20    1
    10    20    21    1
    11    21    22    1
    12    22    25    1
    13    25    26   ar
    14    26    27   ar
    15    27    28   ar
    16    28    29   ar
    17    29    30   ar
    18    30    31    1
    19    31    32    1
    20    22    23    1
    21    23    24    1
    22     2     3    1
    23     3     4   ar
    24     4     5   ar
    25     5     6   ar
    26     6     7    1
    27     6     8   ar
    28     8     9   ar
    29     2    10    1
    30    10    11    1
    31    10    12    1
    32    24    19    1
    33     9     3   ar
    34    30    25   ar
@<TRIPOS>MOLECULE
*****
 32 34 0 0 0
SMALL
GASTEIGER

@<TRIPOS>ATOM
      1 C         140.4672  140.0931  167.5757 C.3     1  UNL1        0.0161
      2 C         140.8536  141.2848  168.4006 C.3     1  UNL1        0.1083
      3 C         141.4187  141.9471  167.1792 C.ar    1  UNL1       -0.0127
      4 C         142.8417  141.6929  166.7787 C.ar    1  UNL1       -0.0033
      5 C         143.4068  142.3552  165.5571 C.ar    1  UNL1        0.0064
      6 C         142.5489  143.2717  164.7362 C.ar    1  UNL1        0.0345
      7 BR        143.1140  143.9341  163.5147 Br      1  UNL1       -0.0490
      8 C         141.1259  143.5259  165.1367 C.ar    1  UNL1        0.0064
      9 C         140.5608  142.8636  166.3581 C.ar    1  UNL1       -0.0033
     10 C         141.2400  142.4765  169.2255 C.3     1  UNL1        0.0138
     11 C         140.3030  143.6417  169.3448 C.3     1  UNL1        0.0009
     12 C         142.5634  142.5030  169.9312 C.3     1  UNL1        0.0009
     13 C         140.2885  140.6225  169.6220 C.2     1  UNL1        0.3199
     14 O         139.1182  141.2344  170.3334 O.2     1  UNL1       -0.2498
     15 C         142.3690  139.1127  169.9991 C.3     1  UNL1        0.2556
     16 O         140.8937  139.3482  170.1322 O.3     1  UNL1       -0.4442
     17 C         139.0199  139.8031  167.3087 C.3     1  UNL1        0.0182
     18 C         138.5845  139.3511  165.9463 C.3     1  UNL1        0.0721
     19 N         138.8285  140.2258  164.7523 N.3     1  UNL1       -0.2727
     20 C         137.8410  141.2959  164.3922 C.3     1  UNL1        0.0724
     21 C         138.0850  142.1705  163.1983 C.3     1  UNL1        0.0218
     22 C         139.3165  141.9751  162.3645 C.3     1  UNL1        0.0281
     23 C         140.3040  140.9050  162.7247 C.3     1  UNL1        0.0218
     24 C         140.0600  140.0304  163.9186 C.3     1  UNL1        0.0724
     25 C         139.5605  142.8498  161.1706 C.ar    1  UNL1        0.0115
     26 C         140.2570  144.1679  161.3363 C.ar    1  UNL1       -0.0013
     27 C         140.5010  145.0426  160.1423 C.ar    1  UNL1       -0.0001
     28 C         140.0484  144.5991  158.7827 C.ar    1  UNL1        0.0031
     29 C         139.3519  143.2810  158.6171 C.ar    1  UNL1        0.0366
     30 C         139.1079  142.4063  159.8110 C.ar    1  UNL1        0.1347
     31 O         138.4113  141.0882  159.6453 O.3     1  UNL1       -0.4717
     32 C         139.1909  139.8745  159.2339 C.3     1  UNL1        0.2525
@<TRIPOS>BOND
     1    15    16    1
     2    16    13    1
     3    13    14    2
     4    13     2    1
     5     2     1    1
     6     1    17    1
     7    17    18    1
     8    18    19    1
     9    19    20    1
    10    20    21    1
    11    21    22    1
    12    22    25    1
    13    25    26   ar
    14    26    27   ar
    15    27    28   ar
    16    28    29   ar
    17    29    30   ar
    18    30    31    1
    19    31    32    1
    20    22    23    1
    21    23    24    1
    22     2     3    1
    23     3     4   ar
    24     4     5   ar
    25     5     6   ar
    26     6     7    1
    27     6     8   ar
    28     8     9   ar
    29     2    10    1
    30    10    11    1
    31    10    12    1
    32    24    19    1
    33     9     3   ar
    34    30    25   ar
@<TRIPOS>MOLECULE
*****
 32 34 0 0 0
SMALL
GASTEIGER

@<TRIPOS>ATOM
      1 C         140.0856  139.8617  167.7110 C.3     1  UNL1        0.0161
      2 C         140.6825  141.1112  168.2875 C.3     1  UNL1        0.1083
      3 C         140.8744  141.6578  166.9039 C.ar    1  UNL1       -0.0127
      4 C         141.8841  141.0360  165.9852 C.ar    1  UNL1       -0.0033
      5 C         142.0760  141.5827  164.6015 C.ar    1  UNL1        0.0064
      6 C         141.2582  142.7511  164.1366 C.ar    1  UNL1        0.0345
      7 BR        141.4501  143.2977  162.7530 Br      1  UNL1       -0.0490
      8 C         140.2486  143.3728  165.0553 C.ar    1  UNL1        0.0064
      9 C         140.0567  142.8262  166.4389 C.ar    1  UNL1       -0.0033
     10 C         141.2794  142.3608  168.8639 C.3     1  UNL1        0.0138
     11 C         140.3886  143.4892  169.2917 C.3     1  UNL1        0.0009
     12 C         142.7672  142.4819  169.0125 C.3     1  UNL1        0.0009
     13 C         140.4906  140.5646  169.6710 C.2     1  UNL1        0.3199
     14 O         139.6513  141.3133  170.6635 O.2     1  UNL1       -0.2498
     15 C         142.6238  139.2022  170.2571 C.3     1  UNL1        0.2556
     16 O         141.1381  139.2693  170.0622 O.3     1  UNL1       -0.4442
     17 C         138.6059  139.6300  167.7937 C.3     1  UNL1        0.0182
     18 C         137.8992  138.8950  166.6936 C.3     1  UNL1        0.0721
     19 N         138.4786  138.8780  165.3101 N.3     1  UNL1       -0.2727
     20 C         138.3414  140.0810  164.4248 C.3     1  UNL1        0.0724
     21 C         138.9208  140.0640  163.0413 C.3     1  UNL1        0.0218
     22 C         139.6373  138.8439  162.5432 C.3     1  UNL1        0.0281
     23 C         139.7745  137.6409  163.4285 C.3     1  UNL1        0.0218
     24 C         139.1951  137.6579  164.8120 C.3     1  UNL1        0.0724
     25 C         140.2167  138.8270  161.1597 C.ar    1  UNL1        0.0115
     26 C         139.3351  138.5387  159.9808 C.ar    1  UNL1       -0.0013
     27 C         139.9145  138.5218  158.5973 C.ar    1  UNL1       -0.0001
     28 C         141.3755  138.7930  158.3927 C.ar    1  UNL1        0.0031
     29 C         142.2571  139.0812  159.5716 C.ar    1  UNL1        0.0366
     30 C         141.6777  139.0982  160.9550 C.ar    1  UNL1        0.1347
     31 O         142.5593  139.3864  162.1339 O.3     1  UNL1       -0.4717
     32 C         143.7195  138.4865  162.4406 C.3     1  UNL1        0.2525
@<TRIPOS>BOND
     1    15    16    1
     2    16    13    1
     3    13    14    2
     4    13     2    1
     5     2     1    1
     6     1    17    1
     7    17    18    1
     8    18    19    1
     9    19    20    1
    10    20    21    1
    11    21    22    1
    12    22    25    1
    13    25    26   ar
    14    26    27   ar
    15    27    28   ar
    16    28    29   ar
    17    29    30   ar
    18    30    31    1
    19    31    32    1
    20    22    23    1
    21    23    24    1
    22     2     3    1
    23     3     4   ar
    24     4     5   ar
    25     5     6   ar
    26     6     7    1
    27     6     8   ar
    28     8     9   ar
    29     2    10    1
    30    10    11    1
    31    10    12    1
    32    24    19    1
    33     9     3   ar
    34    30    25   ar
@<TRIPOS>MOLECULE
*****
 32 34 0 0 0
SMALL
GASTEIGER

@<TRIPOS>ATOM
      1 C         140.0111  140.6128  167.5411 C.3     1  UNL1        0.0161
      2 C         141.1508  140.4072  168.4943 C.3     1  UNL1        0.1083
      3 C         142.0873  140.2289  167.3363 C.ar    1  UNL1       -0.0127
      4 C         142.7787  138.9144  167.1263 C.ar    1  UNL1       -0.0033
      5 C         143.7153  138.7362  165.9681 C.ar    1  UNL1        0.0064
      6 C         143.9603  139.8725  165.0200 C.ar    1  UNL1        0.0345
      7 BR        144.8968  139.6942  163.8619 Br      1  UNL1       -0.0490
      8 C         143.2689  141.1869  165.2300 C.ar    1  UNL1        0.0064
      9 C         142.3324  141.3652  166.3881 C.ar    1  UNL1       -0.0033
     10 C         142.2905  140.2016  169.4476 C.3     1  UNL1        0.0138
     11 C         142.5884  138.8296  169.9758 C.3     1  UNL1        0.0009
     12 C         143.1325  141.3680  169.8727 C.3     1  UNL1        0.0009
     13 C         140.2144  140.5854  169.6524 C.2     1  UNL1        0.3199
     14 O         140.0478  139.4854  170.6584 O.2     1  UNL1       -0.2498
     15 C         139.9170  142.9142  170.7653 C.3     1  UNL1        0.2556
     16 O         139.4444  141.8638  169.8045 O.3     1  UNL1       -0.4442
     17 C         139.0546  139.4913  167.2626 C.3     1  UNL1        0.0182
     18 C         138.5254  139.2842  165.8744 C.3     1  UNL1        0.0721
     19 N         139.4061  139.5471  164.6890 N.3     1  UNL1       -0.2727
     20 C         139.2891  140.8414  163.9400 C.3     1  UNL1        0.0724
     21 C         140.1698  141.1042  162.7546 C.3     1  UNL1        0.0218
     22 C         141.1676  140.0726  162.3182 C.3     1  UNL1        0.0281
     23 C         141.2846  138.7783  163.0671 C.3     1  UNL1        0.0218
     24 C         140.4039  138.5155  164.2525 C.3     1  UNL1        0.0724
     25 C         142.0483  140.3355  161.1327 C.ar    1  UNL1        0.0115
     26 C         143.1156  141.3866  161.2097 C.ar    1  UNL1       -0.0013
     27 C         143.9964  141.6494  160.0242 C.ar    1  UNL1       -0.0001
     28 C         143.8098  140.8611  158.7618 C.ar    1  UNL1        0.0031
     29 C         142.7424  139.8099  158.6848 C.ar    1  UNL1        0.0366
     30 C         141.8617  139.5471  159.8703 C.ar    1  UNL1        0.1347
     31 O         140.7944  138.4959  159.7933 O.3     1  UNL1       -0.4717
     32 C         139.3845  138.8819  159.4569 C.3     1  UNL1        0.2525
@<TRIPOS>BOND
     1    15    16    1
     2    16    13    1
     3    13    14    2
     4    13     2    1
     5     2     1    1
     6     1    17    1
     7    17    18    1
     8    18    19    1
     9    19    20    1
    10    20    21    1
    11    21    22    1
    12    22    25    1
    13    25    26   ar
    14    26    27   ar
    15    27    28   ar
    16    28    29   ar
    17    29    30   ar
    18    30    31    1
    19    31    32    1
    20    22    23    1
    21    23    24    1
    22     2     3    1
    23     3     4   ar
    24     4     5   ar
    25     5     6   ar
    26     6     7    1
    27     6     8   ar
    28     8     9   ar
    29     2    10    1
    30    10    11    1
    31    10    12    1
    32    24    19    1
    33     9     3   ar
    34    30    25   ar
@<TRIPOS>MOLECULE
*****
 32 34 0 0 0
SMALL
GASTEIGER

@<TRIPOS>ATOM
      1 C         140.6208  140.0945  167.4736 C.3     1  UNL1        0.0161
      2 C         140.9682  141.2881  168.3130 C.3     1  UNL1        0.1083
      3 C         141.3788  142.0361  167.0794 C.ar    1  UNL1       -0.0127
      4 C         142.7923  141.9487  166.5850 C.ar    1  UNL1       -0.0033
      5 C         143.2029  142.6968  165.3513 C.ar    1  UNL1        0.0064
      6 C         142.2001  143.5323  164.6122 C.ar    1  UNL1        0.0345
      7 BR        142.6107  144.2804  163.3786 Br      1  UNL1       -0.0490
      8 C         140.7866  143.6197  165.1067 C.ar    1  UNL1        0.0064
      9 C         140.3760  142.8717  166.3403 C.ar    1  UNL1       -0.0033
     10 C         141.3156  142.4816  169.1524 C.3     1  UNL1        0.0138
     11 C         140.3352  143.6076  169.2973 C.3     1  UNL1        0.0009
     12 C         142.6434  142.5492  169.8470 C.3     1  UNL1        0.0009
     13 C         140.5575  140.5400  169.5466 C.2     1  UNL1        0.3199
     14 O         141.3671  139.3684  170.0176 O.2     1  UNL1       -0.2498
     15 C         138.1408  140.0610  170.3712 C.3     1  UNL1        0.2556
     16 O         139.3372  140.9636  170.3092 O.3     1  UNL1       -0.4442
     17 C         139.2203  139.9162  166.9665 C.3     1  UNL1        0.0182
     18 C         138.9821  139.2773  165.6304 C.3     1  UNL1        0.0721
     19 N         139.2608  140.0445  164.3719 N.3     1  UNL1       -0.2727
     20 C         138.1447  140.7517  163.6619 C.3     1  UNL1        0.0724
     21 C         138.4234  141.5188  162.4034 C.3     1  UNL1        0.0218
     22 C         139.8182  141.5787  161.8549 C.3     1  UNL1        0.0281
     23 C         140.9343  140.8715  162.5649 C.3     1  UNL1        0.0218
     24 C         140.6556  140.1044  163.8234 C.3     1  UNL1        0.0724
     25 C         140.0969  142.3459  160.5964 C.ar    1  UNL1        0.0115
     26 C         140.6426  141.6380  159.3918 C.ar    1  UNL1       -0.0013
     27 C         140.9213  142.4051  158.1332 C.ar    1  UNL1       -0.0001
     28 C         140.6542  143.8802  158.0794 C.ar    1  UNL1        0.0031
     29 C         140.1085  144.5881  159.2840 C.ar    1  UNL1        0.0366
     30 C         139.8298  143.8209  160.5425 C.ar    1  UNL1        0.1347
     31 O         139.2841  144.5288  161.7472 O.3     1  UNL1       -0.4717
     32 C         139.6046  145.9762  161.9757 C.3     1  UNL1        0.2525
@<TRIPOS>BOND
     1    15    16    1
     2    16    13    1
     3    13    14    2
     4    13     2    1
     5     2     1    1
     6     1    17    1
     7    17    18    1
     8    18    19    1
     9    19    20    1
    10    20    21    1
    11    21    22    1
    12    22    25    1
    13    25    26   ar
    14    26    27   ar
    15    27    28   ar
    16    28    29   ar
    17    29    30   ar
    18    30    31    1
    19    31    32    1
    20    22    23    1
    21    23    24    1
    22     2     3    1
    23     3     4   ar
    24     4     5   ar
    25     5     6   ar
    26     6     7    1
    27     6     8   ar
    28     8     9   ar
    29     2    10    1
    30    10    11    1
    31    10    12    1
    32    24    19    1
    33     9     3   ar
    34    30    25   ar
@<TRIPOS>MOLECULE
*****
 32 34 0 0 0
SMALL
GASTEIGER

@<TRIPOS>ATOM
      1 C         142.6278  141.3498  167.0578 C.3     1  UNL1        0.0161
      2 C         141.5630  141.7471  168.0368 C.3     1  UNL1        0.1083
      3 C         140.5557  141.7845  166.9260 C.ar    1  UNL1       -0.0127
      4 C         140.4166  143.0160  166.0809 C.ar    1  UNL1       -0.0033
      5 C         139.4092  143.0534  164.9701 C.ar    1  UNL1        0.0064
      6 C         138.5410  141.8595  164.7044 C.ar    1  UNL1        0.0345
      7 BR        137.5336  141.8969  163.5936 Br      1  UNL1       -0.0490
      8 C         138.6801  140.6280  165.5495 C.ar    1  UNL1        0.0064
      9 C         139.6874  140.5905  166.6603 C.ar    1  UNL1       -0.0033
     10 C         140.4982  142.1443  169.0158 C.3     1  UNL1        0.0138
     11 C         140.4170  143.5610  169.5018 C.3     1  UNL1        0.0009
     12 C         139.5146  141.1247  169.5088 C.3     1  UNL1        0.0009
     13 C         142.5703  141.7096  169.1476 C.2     1  UNL1        0.3199
     14 O         143.7642  142.6168  169.1083 O.2     1  UNL1       -0.2498
     15 C         142.6589  139.3013  170.1184 C.3     1  UNL1        0.2556
     16 O         142.3837  140.7649  170.2977 O.3     1  UNL1       -0.4442
     17 C         142.7859  139.9109  166.6645 C.3     1  UNL1        0.0182
     18 C         143.2744  139.5583  165.2908 C.3     1  UNL1        0.0721
     19 N         143.0104  140.4838  164.1403 N.3     1  UNL1       -0.2727
     20 C         144.0571  141.4710  163.7164 C.3     1  UNL1        0.0724
     21 C         143.7931  142.3965  162.5659 C.3     1  UNL1        0.0218
     22 C         142.4823  142.3348  161.8393 C.3     1  UNL1        0.0281
     23 C         141.4355  141.3476  162.2632 C.3     1  UNL1        0.0218
     24 C         141.6996  140.4221  163.4137 C.3     1  UNL1        0.0724
     25 C         142.2182  143.2603  160.6887 C.ar    1  UNL1        0.0115
     26 C         142.7913  142.9578  159.3360 C.ar    1  UNL1       -0.0013
     27 C         142.5273  143.8833  158.1854 C.ar    1  UNL1       -0.0001
     28 C         141.6901  145.1114  158.3877 C.ar    1  UNL1        0.0031
     29 C         141.1170  145.4140  159.7405 C.ar    1  UNL1        0.0366
     30 C         141.3810  144.4885  160.8910 C.ar    1  UNL1        0.1347
     31 O         140.8079  144.7910  162.2438 O.3     1  UNL1       -0.4717
     32 C         139.4982  145.5131  162.3591 C.3     1  UNL1        0.2525
@<TRIPOS>BOND
     1    15    16    1
     2    16    13    1
     3    13    14    2
     4    13     2    1
     5     2     1    1
     6     1    17    1
     7    17    18    1
     8    18    19    1
     9    19    20    1
    10    20    21    1
    11    21    22    1
    12    22    25    1
    13    25    26   ar
    14    26    27   ar
    15    27    28   ar
    16    28    29   ar
    17    29    30   ar
    18    30    31    1
    19    31    32    1
    20    22    23    1
    21    23    24    1
    22     2     3    1
    23     3     4   ar
    24     4     5   ar
    25     5     6   ar
    26     6     7    1
    27     6     8   ar
    28     8     9   ar
    29     2    10    1
    30    10    11    1
    31    10    12    1
    32    24    19    1
    33     9     3   ar
    34    30    25   ar
