@<TRIPOS>MOLECULE
*****
 32 35 0 0 0
SMALL
GASTEIGER

@<TRIPOS>ATOM
      1 C         138.4585  140.0590  164.0048 C.ar    1  UNL1       -0.0000
      2 C         138.0845  141.3346  163.3097 C.ar    1  UNL1       -0.0003
      3 C         137.8257  141.3355  161.8323 C.ar    1  UNL1       -0.0042
      4 C         137.9409  140.0609  161.0498 C.ar    1  UNL1       -0.0194
      5 C         138.3149  138.7854  161.7449 C.ar    1  UNL1       -0.0042
      6 C         138.5737  138.7845  163.2224 C.ar    1  UNL1       -0.0003
      7 C         141.4247  141.9502  171.0226 C.3     1  UNL1        0.1155
      8 N         140.7056  141.3942  169.8293 N.am    1  UNL1       -0.2702
      9 C         140.8718  141.8480  168.4093 C.3     1  UNL1        0.1206
     10 C         139.9629  141.0211  167.5490 C.ar    1  UNL1        0.0021
     11 C         139.7041  141.0220  166.0715 C.ar    1  UNL1       -0.0025
     12 C         138.7174  140.0581  165.4824 C.ar    1  UNL1       -0.0003
     13 C         137.9894  139.0933  166.3707 C.ar    1  UNL1        0.0001
     14 C         138.2482  139.0923  167.8482 C.ar    1  UNL1        0.0043
     15 C         139.2349  140.0562  168.4373 C.ar    1  UNL1        0.0512
     16 C         139.6939  140.2869  169.8466 C.2     1  UNL1        0.2491
     17 O         139.2238  139.5410  171.0602 O.2     1  UNL1       -0.2699
     18 C         137.6821  140.0619  159.5723 C.3     1  UNL1        0.0616
     19 C         138.8008  140.3484  158.6151 C.3     1  UNL1        0.1684
     20 N         139.7848  139.2710  158.2674 N.am    1  UNL1       -0.2925
     21 C         139.5931  138.4525  157.0251 C.2     1  UNL1        0.2374
     22 O         138.4173  138.7114  156.1305 O.2     1  UNL1       -0.2736
     23 H         140.5566  139.1010  158.8546 H       1  UNL1        0.1504
     24 C         140.5771  137.3751  156.6775 C.3     1  UNL1        0.1315
     25 C         141.9466  137.3843  157.2894 C.3     1  UNL1        0.0251
     26 C         142.9307  136.3068  156.9417 C.3     1  UNL1        0.0033
     27 C         142.5453  135.2203  155.9822 C.3     1  UNL1        0.0171
     28 C         141.1757  135.2111  155.3703 C.3     1  UNL1        0.0689
     29 N         140.1917  136.2885  155.7179 N.3     1  UNL1       -0.2913
     30 H         139.3736  135.8240  156.1122 H       1  UNL1        0.1236
     31 C         138.9356  141.7122  158.0055 C.1     1  UNL1        0.0927
     32 N         139.0703  143.0762  157.3959 N.1     1  UNL1       -0.1942
@<TRIPOS>BOND
     1     7     8    1
     2     8     9    1
     3     9    10    1
     4    10    11   ar
     5    11    12   ar
     6    12     1    1
     7     1     2   ar
     8     2     3   ar
     9     3     4   ar
    10     4    18    1
    11    19    18    1
    12    19    31    1
    13    31    32    3
    14    19    20    1
    15    20    21   am
    16    21    22    2
    17    24    21    1
    18    24    25    1
    19    25    26    1
    20    26    27    1
    21    27    28    1
    22    28    29    1
    23     4     5   ar
    24     5     6   ar
    25    12    13   ar
    26    13    14   ar
    27    14    15   ar
    28    15    16    1
    29    16    17    2
    30    16     8   am
    31    15    10   ar
    32     6     1   ar
    33    29    24    1
    34    20    23    1
    35    29    30    1
@<TRIPOS>MOLECULE
*****
 32 35 0 0 0
SMALL
GASTEIGER

@<TRIPOS>ATOM
      1 C         140.0937  139.2024  163.6116 C.ar    1  UNL1       -0.0000
      2 C         141.1905  139.9832  162.9504 C.ar    1  UNL1       -0.0003
      3 C         141.4868  139.7751  161.4948 C.ar    1  UNL1       -0.0042
      4 C         140.6862  138.7862  160.7003 C.ar    1  UNL1       -0.0194
      5 C         139.5893  138.0054  161.3615 C.ar    1  UNL1       -0.0042
      6 C         139.2931  138.2135  162.8172 C.ar    1  UNL1       -0.0003
      7 C         140.8403  141.4772  171.0876 C.3     1  UNL1        0.1155
      8 N         140.4470  140.9313  169.7470 N.am    1  UNL1       -0.2702
      9 C         141.2463  141.0387  168.4822 C.3     1  UNL1        0.1206
     10 C         140.4786  140.3559  167.3893 C.ar    1  UNL1        0.0021
     11 C         140.7749  140.1479  165.9337 C.ar    1  UNL1       -0.0025
     12 C         139.7974  139.4105  165.0673 C.ar    1  UNL1       -0.0003
     13 C         138.5235  138.8812  165.6565 C.ar    1  UNL1        0.0001
     14 C         138.2272  139.0893  167.1121 C.ar    1  UNL1        0.0043
     15 C         139.2048  139.8267  167.9785 C.ar    1  UNL1        0.0512
     16 C         139.1852  140.1823  169.4356 C.2     1  UNL1        0.2491
     17 O         138.0953  139.8476  170.4103 O.2     1  UNL1       -0.2699
     18 C         140.9825  138.5781  159.2446 C.3     1  UNL1        0.0616
     19 C         142.4007  138.4158  158.7836 C.3     1  UNL1        0.1684
     20 N         142.9576  137.0447  158.5394 N.am    1  UNL1       -0.2925
     21 C         142.6619  136.3334  157.2522 C.2     1  UNL1        0.2374
     22 O         141.8093  136.9933  156.2094 O.2     1  UNL1       -0.2736
     23 H         143.5173  136.6116  159.2238 H       1  UNL1        0.1504
     24 C         143.2189  134.9622  157.0080 C.3     1  UNL1        0.1315
     25 C         143.2598  134.4064  155.6154 C.3     1  UNL1        0.0251
     26 C         143.8168  133.0352  155.3711 C.3     1  UNL1        0.0033
     27 C         144.3329  132.2198  156.5195 C.3     1  UNL1        0.0171
     28 C         144.2920  132.7757  157.9122 C.3     1  UNL1        0.0689
     29 N         143.7351  134.1468  158.1564 N.3     1  UNL1       -0.2913
     30 H         144.4771  134.6923  158.5947 H       1  UNL1        0.1236
     31 C         143.2619  139.6246  158.5669 C.1     1  UNL1        0.0927
     32 N         144.1231  140.8335  158.3502 N.1     1  UNL1       -0.1942
@<TRIPOS>BOND
     1     7     8    1
     2     8     9    1
     3     9    10    1
     4    10    11   ar
     5    11    12   ar
     6    12     1    1
     7     1     2   ar
     8     2     3   ar
     9     3     4   ar
    10     4    18    1
    11    19    18    1
    12    19    31    1
    13    31    32    3
    14    19    20    1
    15    20    21   am
    16    21    22    2
    17    24    21    1
    18    24    25    1
    19    25    26    1
    20    26    27    1
    21    27    28    1
    22    28    29    1
    23     4     5   ar
    24     5     6   ar
    25    12    13   ar
    26    13    14   ar
    27    14    15   ar
    28    15    16    1
    29    16    17    2
    30    16     8   am
    31    15    10   ar
    32     6     1   ar
    33    29    24    1
    34    20    23    1
    35    29    30    1
@<TRIPOS>MOLECULE
*****
 32 35 0 0 0
SMALL
GASTEIGER

@<TRIPOS>ATOM
      1 C         139.4294  139.1033  163.5462 C.ar    1  UNL1       -0.0000
      2 C         138.2451  139.3189  162.6512 C.ar    1  UNL1       -0.0003
      3 C         138.3652  139.0739  161.1763 C.ar    1  UNL1       -0.0042
      4 C         139.6696  138.6133  160.5963 C.ar    1  UNL1       -0.0194
      5 C         140.8539  138.3977  161.4912 C.ar    1  UNL1       -0.0042
      6 C         140.7337  138.6427  162.9663 C.ar    1  UNL1       -0.0003
      7 C         140.8923  141.8258  170.7623 C.3     1  UNL1        0.1155
      8 N         140.3921  141.1701  169.5093 N.am    1  UNL1       -0.2702
      9 C         140.9934  141.3070  168.1420 C.3     1  UNL1        0.1206
     10 C         140.1756  140.4839  167.1913 C.ar    1  UNL1        0.0021
     11 C         140.2958  140.2390  165.7164 C.ar    1  UNL1       -0.0025
     12 C         139.3092  139.3483  165.0212 C.ar    1  UNL1       -0.0003
     13 C         138.2024  138.7026  165.8010 C.ar    1  UNL1        0.0001
     14 C         138.0822  138.9476  167.2760 C.ar    1  UNL1        0.0043
     15 C         139.0688  139.8383  167.9711 C.ar    1  UNL1        0.0512
     16 C         139.2026  140.2623  169.4037 C.2     1  UNL1        0.2491
     17 O         138.3045  139.8508  170.5325 O.2     1  UNL1       -0.2699
     18 C         139.7897  138.3683  159.1213 C.3     1  UNL1        0.0616
     19 C         139.7106  139.5180  158.1612 C.3     1  UNL1        0.1684
     20 N         138.5345  139.6453  157.2389 N.am    1  UNL1       -0.2925
     21 C         137.6101  140.8204  157.3600 C.2     1  UNL1        0.2374
     22 O         137.8617  141.8681  158.4035 O.2     1  UNL1       -0.2736
     23 H         138.3694  138.9577  156.5540 H       1  UNL1        0.1504
     24 C         136.4340  140.9477  156.4377 C.3     1  UNL1        0.1315
     25 C         136.5443  141.7751  155.1914 C.3     1  UNL1        0.0251
     26 C         135.3683  141.9024  154.2691 C.3     1  UNL1        0.0033
     27 C         134.0819  141.2022  154.5930 C.3     1  UNL1        0.0171
     28 C         133.9716  140.3747  155.8393 C.3     1  UNL1        0.0689
     29 N         135.1476  140.2475  156.7616 N.3     1  UNL1       -0.2913
     30 H         135.3627  139.2527  156.8289 H       1  UNL1        0.1236
     31 C         140.8074  140.5404  158.1233 C.1     1  UNL1        0.0927
     32 N         141.9044  141.5629  158.0855 N.1     1  UNL1       -0.1942
@<TRIPOS>BOND
     1     7     8    1
     2     8     9    1
     3     9    10    1
     4    10    11   ar
     5    11    12   ar
     6    12     1    1
     7     1     2   ar
     8     2     3   ar
     9     3     4   ar
    10     4    18    1
    11    19    18    1
    12    19    31    1
    13    31    32    3
    14    19    20    1
    15    20    21   am
    16    21    22    2
    17    24    21    1
    18    24    25    1
    19    25    26    1
    20    26    27    1
    21    27    28    1
    22    28    29    1
    23     4     5   ar
    24     5     6   ar
    25    12    13   ar
    26    13    14   ar
    27    14    15   ar
    28    15    16    1
    29    16    17    2
    30    16     8   am
    31    15    10   ar
    32     6     1   ar
    33    29    24    1
    34    20    23    1
    35    29    30    1
@<TRIPOS>MOLECULE
*****
 32 35 0 0 0
SMALL
GASTEIGER

@<TRIPOS>ATOM
      1 C         143.1379  138.8550  162.0788 C.ar    1  UNL1       -0.0000
      2 C         144.2362  139.5171  162.8569 C.ar    1  UNL1       -0.0003
      3 C         144.2478  139.4370  164.3546 C.ar    1  UNL1       -0.0042
      4 C         143.1610  138.6947  165.0745 C.ar    1  UNL1       -0.0194
      5 C         142.0627  138.0326  164.2964 C.ar    1  UNL1       -0.0042
      6 C         142.0512  138.1127  162.7986 C.ar    1  UNL1       -0.0003
      7 C         142.4155  136.7895  154.5399 C.3     1  UNL1        0.1155
      8 N         142.6209  137.4432  155.8743 N.am    1  UNL1       -0.2702
      9 C         142.4725  136.7817  157.2123 C.3     1  UNL1        0.1206
     10 C         142.7706  137.8029  158.2699 C.ar    1  UNL1        0.0021
     11 C         142.7822  137.7227  159.7676 C.ar    1  UNL1       -0.0025
     12 C         143.1264  138.9351  160.5810 C.ar    1  UNL1       -0.0003
     13 C         143.4591  140.2277  159.8965 C.ar    1  UNL1        0.0001
     14 C         143.4476  140.3079  158.3987 C.ar    1  UNL1        0.0043
     15 C         143.1033  139.0955  157.5854 C.ar    1  UNL1        0.0512
     16 C         143.0108  138.8732  156.1048 C.2     1  UNL1        0.2491
     17 O         143.2638  139.9005  155.0416 O.2     1  UNL1       -0.2699
     18 C         143.1726  138.6146  166.5723 C.3     1  UNL1        0.0616
     19 C         142.5831  139.7273  167.3874 C.3     1  UNL1        0.1684
     20 N         141.8225  140.8299  166.7125 N.am    1  UNL1       -0.2925
     21 C         140.3467  140.6915  166.4827 C.2     1  UNL1        0.2374
     22 O         139.6315  139.4505  166.9279 O.2     1  UNL1       -0.2736
     23 H         142.2919  141.6445  166.4203 H       1  UNL1        0.1504
     24 C         139.5861  141.7943  165.8077 C.3     1  UNL1        0.1315
     25 C         139.9880  143.2233  166.0227 C.3     1  UNL1        0.0251
     26 C         139.2274  144.3260  165.3477 C.3     1  UNL1        0.0033
     27 C         138.0649  143.9996  164.4577 C.3     1  UNL1        0.0171
     28 C         137.6630  142.5705  164.2427 C.3     1  UNL1        0.0689
     29 N         138.4236  141.4679  164.9177 N.3     1  UNL1       -0.2913
     30 H         138.7795  140.8608  164.1793 H       1  UNL1        0.1236
     31 C         142.7543  139.7373  168.8776 C.1     1  UNL1        0.0927
     32 N         142.9254  139.7474  170.3678 N.1     1  UNL1       -0.1942
@<TRIPOS>BOND
     1     7     8    1
     2     8     9    1
     3     9    10    1
     4    10    11   ar
     5    11    12   ar
     6    12     1    1
     7     1     2   ar
     8     2     3   ar
     9     3     4   ar
    10     4    18    1
    11    19    18    1
    12    19    31    1
    13    31    32    3
    14    19    20    1
    15    20    21   am
    16    21    22    2
    17    24    21    1
    18    24    25    1
    19    25    26    1
    20    26    27    1
    21    27    28    1
    22    28    29    1
    23     4     5   ar
    24     5     6   ar
    25    12    13   ar
    26    13    14   ar
    27    14    15   ar
    28    15    16    1
    29    16    17    2
    30    16     8   am
    31    15    10   ar
    32     6     1   ar
    33    29    24    1
    34    20    23    1
    35    29    30    1
@<TRIPOS>MOLECULE
*****
 32 35 0 0 0
SMALL
GASTEIGER

@<TRIPOS>ATOM
      1 C         141.8288  138.8045  162.8937 C.ar    1  UNL1       -0.0000
      2 C         143.0462  138.8348  162.0179 C.ar    1  UNL1       -0.0003
      3 C         142.9076  138.6594  160.5346 C.ar    1  UNL1       -0.0042
      4 C         141.5515  138.4537  159.9272 C.ar    1  UNL1       -0.0194
      5 C         140.3342  138.4233  160.8030 C.ar    1  UNL1       -0.0042
      6 C         140.4728  138.5988  162.2863 C.ar    1  UNL1       -0.0003
      7 C         140.1035  140.5027  170.3611 C.3     1  UNL1        0.1155
      8 N         140.6917  140.1070  169.0392 N.am    1  UNL1       -0.2702
      9 C         139.9888  140.1451  167.7146 C.3     1  UNL1        0.1206
     10 C         140.9487  139.6653  166.6665 C.ar    1  UNL1        0.0021
     11 C         140.8100  139.4899  165.1833 C.ar    1  UNL1       -0.0025
     12 C         141.9674  138.9799  164.3770 C.ar    1  UNL1       -0.0003
     13 C         143.2635  138.6453  165.0538 C.ar    1  UNL1        0.0001
     14 C         143.4022  138.8207  166.5371 C.ar    1  UNL1        0.0043
     15 C         142.2448  139.3307  167.3434 C.ar    1  UNL1        0.0512
     16 C         142.0859  139.6037  168.8098 C.2     1  UNL1        0.2491
     17 O         143.1369  139.4077  169.8620 O.2     1  UNL1       -0.2699
     18 C         141.4129  138.2783  158.4440 C.3     1  UNL1        0.0616
     19 C         142.6020  137.8782  157.6217 C.3     1  UNL1        0.1684
     20 N         143.1207  136.4723  157.6876 N.am    1  UNL1       -0.2925
     21 C         142.5872  135.4313  156.7486 C.2     1  UNL1        0.2374
     22 O         141.5350  135.7961  155.7438 O.2     1  UNL1       -0.2736
     23 H         143.8113  136.2328  158.3471 H       1  UNL1        0.1504
     24 C         143.1060  134.0253  156.8145 C.3     1  UNL1        0.1315
     25 C         142.3327  132.9099  156.1760 C.3     1  UNL1        0.0251
     26 C         142.8514  131.5039  156.2420 C.3     1  UNL1        0.0033
     27 C         144.1435  131.2135  156.9464 C.3     1  UNL1        0.0171
     28 C         144.9168  132.3291  157.5849 C.3     1  UNL1        0.0689
     29 N         144.3980  133.7349  157.5190 N.3     1  UNL1       -0.2913
     30 H         145.1167  134.2927  157.0577 H       1  UNL1        0.1236
     31 C         143.2723  138.8840  156.7335 C.1     1  UNL1        0.0927
     32 N         143.9427  139.8899  155.8453 N.1     1  UNL1       -0.1942
@<TRIPOS>BOND
     1     7     8    1
     2     8     9    1
     3     9    10    1
     4    10    11   ar
     5    11    12   ar
     6    12     1    1
     7     1     2   ar
     8     2     3   ar
     9     3     4   ar
    10     4    18    1
    11    19    18    1
    12    19    31    1
    13    31    32    3
    14    19    20    1
    15    20    21   am
    16    21    22    2
    17    24    21    1
    18    24    25    1
    19    25    26    1
    20    26    27    1
    21    27    28    1
    22    28    29    1
    23     4     5   ar
    24     5     6   ar
    25    12    13   ar
    26    13    14   ar
    27    14    15   ar
    28    15    16    1
    29    16    17    2
    30    16     8   am
    31    15    10   ar
    32     6     1   ar
    33    29    24    1
    34    20    23    1
    35    29    30    1
@<TRIPOS>MOLECULE
*****
 32 35 0 0 0
SMALL
GASTEIGER

@<TRIPOS>ATOM
      1 C         142.0259  138.3112  161.9044 C.ar    1  UNL1       -0.0000
      2 C         141.2068  137.5935  162.9358 C.ar    1  UNL1       -0.0003
      3 C         141.5870  137.6741  164.3845 C.ar    1  UNL1       -0.0042
      4 C         142.7864  138.4724  164.8019 C.ar    1  UNL1       -0.0194
      5 C         143.6056  139.1901  163.7705 C.ar    1  UNL1       -0.0042
      6 C         143.2253  139.1095  162.3216 C.ar    1  UNL1       -0.0003
      7 C         142.5208  137.1836  154.1515 C.3     1  UNL1        0.1155
      8 N         142.1520  137.4674  155.5775 N.am    1  UNL1       -0.2702
      9 C         143.0673  137.3669  156.7616 C.3     1  UNL1        0.1206
     10 C         142.2843  137.7390  157.9857 C.ar    1  UNL1        0.0021
     11 C         142.6646  137.8196  159.4344 C.ar    1  UNL1       -0.0025
     12 C         141.6456  138.2306  160.4555 C.ar    1  UNL1       -0.0003
     13 C         140.2463  138.5611  160.0279 C.ar    1  UNL1        0.0001
     14 C         139.8660  138.4805  158.5792 C.ar    1  UNL1        0.0043
     15 C         140.8850  138.0694  157.5581 C.ar    1  UNL1        0.0512
     16 C         140.8033  137.9016  156.0698 C.2     1  UNL1        0.2491
     17 O         139.5864  138.1282  155.2225 O.2     1  UNL1       -0.2699
     18 C         143.1667  138.5529  166.2506 C.3     1  UNL1        0.0616
     19 C         142.4922  139.5471  167.1489 C.3     1  UNL1        0.1684
     20 N         141.5948  140.5976  166.5649 N.am    1  UNL1       -0.2925
     21 C         142.1795  141.8730  166.0344 C.2     1  UNL1        0.2374
     22 O         143.6615  142.0979  166.0878 O.2     1  UNL1       -0.2736
     23 H         140.6221  140.4500  166.5299 H       1  UNL1        0.1504
     24 C         141.2820  142.9235  165.4504 C.3     1  UNL1        0.1315
     25 C         139.9366  143.1840  166.0602 C.3     1  UNL1        0.0251
     26 C         139.0391  144.2346  165.4762 C.3     1  UNL1        0.0033
     27 C         139.4872  145.0246  164.2824 C.3     1  UNL1        0.0171
     28 C         140.8327  144.7641  163.6726 C.3     1  UNL1        0.0689
     29 N         141.7301  143.7136  164.2566 N.3     1  UNL1       -0.2913
     30 H         142.5971  144.1810  164.5214 H       1  UNL1        0.1236
     31 C         142.7152  139.4906  168.6311 C.1     1  UNL1        0.0927
     32 N         142.9381  139.4342  170.1134 N.1     1  UNL1       -0.1942
@<TRIPOS>BOND
     1     7     8    1
     2     8     9    1
     3     9    10    1
     4    10    11   ar
     5    11    12   ar
     6    12     1    1
     7     1     2   ar
     8     2     3   ar
     9     3     4   ar
    10     4    18    1
    11    19    18    1
    12    19    31    1
    13    31    32    3
    14    19    20    1
    15    20    21   am
    16    21    22    2
    17    24    21    1
    18    24    25    1
    19    25    26    1
    20    26    27    1
    21    27    28    1
    22    28    29    1
    23     4     5   ar
    24     5     6   ar
    25    12    13   ar
    26    13    14   ar
    27    14    15   ar
    28    15    16    1
    29    16    17    2
    30    16     8   am
    31    15    10   ar
    32     6     1   ar
    33    29    24    1
    34    20    23    1
    35    29    30    1
@<TRIPOS>MOLECULE
*****
 32 35 0 0 0
SMALL
GASTEIGER

@<TRIPOS>ATOM
      1 C         140.9270  138.4326  162.0903 C.ar    1  UNL1       -0.0000
      2 C         140.1044  138.6908  160.8628 C.ar    1  UNL1       -0.0003
      3 C         140.7176  138.5358  159.5027 C.ar    1  UNL1       -0.0042
      4 C         142.1535  138.1226  159.3700 C.ar    1  UNL1       -0.0194
      5 C         142.9761  137.8644  160.5975 C.ar    1  UNL1       -0.0042
      6 C         142.3628  138.0194  161.9576 C.ar    1  UNL1       -0.0003
      7 C         139.6704  140.9298  169.4257 C.3     1  UNL1        0.1155
      8 N         139.6792  140.2875  168.0702 N.am    1  UNL1       -0.2702
      9 C         140.6643  140.5592  166.9722 C.3     1  UNL1        0.1206
     10 C         140.2984  139.7003  165.7981 C.ar    1  UNL1        0.0021
     11 C         140.9117  139.5453  164.4380 C.ar    1  UNL1       -0.0025
     12 C         140.3137  138.5877  163.4504 C.ar    1  UNL1       -0.0003
     13 C         139.1025  137.7851  163.8229 C.ar    1  UNL1        0.0001
     14 C         138.4892  137.9401  165.1830 C.ar    1  UNL1        0.0043
     15 C         139.0872  138.8977  166.1706 C.ar    1  UNL1        0.0512
     16 C         138.7045  139.2606  167.5748 C.2     1  UNL1        0.2491
     17 O         137.5498  138.6958  168.3479 O.2     1  UNL1       -0.2699
     18 C         142.7667  137.9676  158.0099 C.3     1  UNL1        0.0616
     19 C         142.0556  137.1764  156.9524 C.3     1  UNL1        0.1684
     20 N         142.3380  135.7118  156.7944 N.am    1  UNL1       -0.2925
     21 C         143.5271  135.2586  156.0003 C.2     1  UNL1        0.2374
     22 O         144.4339  136.2701  155.3642 O.2     1  UNL1       -0.2736
     23 H         141.7428  135.0479  157.2118 H       1  UNL1        0.1504
     24 C         143.8095  133.7939  155.8423 C.3     1  UNL1        0.1315
     25 C         143.0989  133.0029  154.7843 C.3     1  UNL1        0.0251
     26 C         143.3813  131.5382  154.6263 C.3     1  UNL1        0.0033
     27 C         144.3742  130.8645  155.5264 C.3     1  UNL1        0.0171
     28 C         145.0848  131.6555  156.5845 C.3     1  UNL1        0.0689
     29 N         144.8024  133.1202  156.7424 N.3     1  UNL1       -0.2913
     30 H         145.6903  133.6064  156.6175 H       1  UNL1        0.1236
     31 C         141.0621  137.8500  156.0528 C.1     1  UNL1        0.0927
     32 N         140.0685  138.5235  155.1532 N.1     1  UNL1       -0.1942
@<TRIPOS>BOND
     1     7     8    1
     2     8     9    1
     3     9    10    1
     4    10    11   ar
     5    11    12   ar
     6    12     1    1
     7     1     2   ar
     8     2     3   ar
     9     3     4   ar
    10     4    18    1
    11    19    18    1
    12    19    31    1
    13    31    32    3
    14    19    20    1
    15    20    21   am
    16    21    22    2
    17    24    21    1
    18    24    25    1
    19    25    26    1
    20    26    27    1
    21    27    28    1
    22    28    29    1
    23     4     5   ar
    24     5     6   ar
    25    12    13   ar
    26    13    14   ar
    27    14    15   ar
    28    15    16    1
    29    16    17    2
    30    16     8   am
    31    15    10   ar
    32     6     1   ar
    33    29    24    1
    34    20    23    1
    35    29    30    1
@<TRIPOS>MOLECULE
*****
 32 35 0 0 0
SMALL
GASTEIGER

@<TRIPOS>ATOM
      1 C         138.6934  139.3564  161.9976 C.ar    1  UNL1       -0.0000
      2 C         138.1998  140.5501  162.7600 C.ar    1  UNL1       -0.0003
      3 C         138.0972  140.4950  164.2554 C.ar    1  UNL1       -0.0042
      4 C         138.4882  139.2461  164.9885 C.ar    1  UNL1       -0.0194
      5 C         138.9819  138.0523  164.2261 C.ar    1  UNL1       -0.0042
      6 C         139.0844  138.1075  162.7306 C.ar    1  UNL1       -0.0003
      7 C         137.4946  141.5284  154.5499 C.3     1  UNL1        0.1155
      8 N         137.9070  140.9229  155.8588 N.am    1  UNL1       -0.2702
      9 C         137.4056  141.3262  157.2137 C.3     1  UNL1        0.1206
     10 C         138.0818  140.4603  158.2350 C.ar    1  UNL1        0.0021
     11 C         137.9792  140.4052  159.7304 C.ar    1  UNL1       -0.0025
     12 C         138.7960  139.4115  160.5021 C.ar    1  UNL1       -0.0003
     13 C         139.7154  138.4730  159.7783 C.ar    1  UNL1        0.0001
     14 C         139.8180  138.5281  158.2828 C.ar    1  UNL1        0.0043
     15 C         139.0012  139.5218  157.5112 C.ar    1  UNL1        0.0512
     16 C         138.8931  139.8077  156.0426 C.2     1  UNL1        0.2491
     17 O         139.6401  139.1022  154.9498 O.2     1  UNL1       -0.2699
     18 C         138.3856  139.1910  166.4840 C.3     1  UNL1        0.0616
     19 C         139.5143  139.6974  167.3324 C.3     1  UNL1        0.1684
     20 N         140.8634  139.9352  166.7216 N.am    1  UNL1       -0.2925
     21 C         141.2212  141.2952  166.1996 C.2     1  UNL1        0.2374
     22 O         140.2298  142.4173  166.2884 O.2     1  UNL1       -0.2736
     23 H         141.5142  139.1988  166.6633 H       1  UNL1        0.1504
     24 C         142.5705  141.5330  165.5888 C.3     1  UNL1        0.1315
     25 C         143.1952  142.8950  165.6571 C.3     1  UNL1        0.0251
     26 C         144.5444  143.1328  165.0463 C.3     1  UNL1        0.0033
     27 C         145.2689  142.0086  164.3672 C.3     1  UNL1        0.0171
     28 C         144.6442  140.6466  164.2989 C.3     1  UNL1        0.0689
     29 N         143.2950  140.4088  164.9097 N.3     1  UNL1       -0.2913
     30 H         143.4122  139.6716  165.6048 H       1  UNL1        0.1236
     31 C         139.2937  139.9659  168.7915 C.1     1  UNL1        0.0927
     32 N         139.0731  140.2346  170.2507 N.1     1  UNL1       -0.1942
@<TRIPOS>BOND
     1     7     8    1
     2     8     9    1
     3     9    10    1
     4    10    11   ar
     5    11    12   ar
     6    12     1    1
     7     1     2   ar
     8     2     3   ar
     9     3     4   ar
    10     4    18    1
    11    19    18    1
    12    19    31    1
    13    31    32    3
    14    19    20    1
    15    20    21   am
    16    21    22    2
    17    24    21    1
    18    24    25    1
    19    25    26    1
    20    26    27    1
    21    27    28    1
    22    28    29    1
    23     4     5   ar
    24     5     6   ar
    25    12    13   ar
    26    13    14   ar
    27    14    15   ar
    28    15    16    1
    29    16    17    2
    30    16     8   am
    31    15    10   ar
    32     6     1   ar
    33    29    24    1
    34    20    23    1
    35    29    30    1
@<TRIPOS>MOLECULE
*****
 32 35 0 0 0
SMALL
GASTEIGER

@<TRIPOS>ATOM
      1 C         141.4676  138.3836  160.6419 C.ar    1  UNL1       -0.0000
      2 C         139.9676  138.3943  160.6421 C.ar    1  UNL1       -0.0003
      3 C         139.2153  138.0515  161.8936 C.ar    1  UNL1       -0.0042
      4 C         139.9630  137.6978  163.1451 C.ar    1  UNL1       -0.0194
      5 C         141.4629  137.6871  163.1449 C.ar    1  UNL1       -0.0042
      6 C         142.2152  138.0300  161.8933 C.ar    1  UNL1       -0.0003
      7 C         146.2040  142.1136  155.6142 C.3     1  UNL1        0.1155
      8 N         145.2548  141.2195  156.3557 N.am    1  UNL1       -0.2702
      9 C         144.8097  141.3920  157.7777 C.3     1  UNL1        0.1206
     10 C         143.8639  140.2751  158.1061 C.ar    1  UNL1        0.0021
     11 C         143.1116  139.9322  159.3577 C.ar    1  UNL1       -0.0025
     12 C         142.2199  138.7265  159.3903 C.ar    1  UNL1       -0.0003
     13 C         142.0805  137.8637  158.1712 C.ar    1  UNL1        0.0001
     14 C         142.8327  138.2065  156.9196 C.ar    1  UNL1        0.0043
     15 C         143.7244  139.4122  156.8871 C.ar    1  UNL1        0.0512
     16 C         144.5841  139.9959  155.8053 C.2     1  UNL1        0.2491
     17 O         144.7447  139.4516  154.4168 O.2     1  UNL1       -0.2699
     18 C         139.2106  137.3550  164.3966 C.3     1  UNL1        0.0616
     19 C         138.8662  138.4310  165.3833 C.3     1  UNL1        0.1684
     20 N         139.4872  139.7906  165.2575 N.am    1  UNL1       -0.2925
     21 C         138.8326  140.8384  164.4068 C.2     1  UNL1        0.2374
     22 O         137.5570  140.5266  163.6819 O.2     1  UNL1       -0.2736
     23 H         140.3244  139.9952  165.7333 H       1  UNL1        0.1504
     24 C         139.4537  142.1980  164.2811 C.3     1  UNL1        0.1315
     25 C         138.7226  143.4062  164.7868 C.3     1  UNL1        0.0251
     26 C         139.3437  144.7658  164.6611 C.3     1  UNL1        0.0033
     27 C         140.6958  144.9172  164.0296 C.3     1  UNL1        0.0171
     28 C         141.4269  143.7089  163.5239 C.3     1  UNL1        0.0689
     29 N         140.8058  142.3494  163.6496 N.3     1  UNL1       -0.2913
     30 H         141.4516  141.7801  164.1966 H       1  UNL1        0.1236
     31 C         137.9008  138.1475  166.4957 C.1     1  UNL1        0.0927
     32 N         136.9353  137.8640  167.6082 N.1     1  UNL1       -0.1942
@<TRIPOS>BOND
     1     7     8    1
     2     8     9    1
     3     9    10    1
     4    10    11   ar
     5    11    12   ar
     6    12     1    1
     7     1     2   ar
     8     2     3   ar
     9     3     4   ar
    10     4    18    1
    11    19    18    1
    12    19    31    1
    13    31    32    3
    14    19    20    1
    15    20    21   am
    16    21    22    2
    17    24    21    1
    18    24    25    1
    19    25    26    1
    20    26    27    1
    21    27    28    1
    22    28    29    1
    23     4     5   ar
    24     5     6   ar
    25    12    13   ar
    26    13    14   ar
    27    14    15   ar
    28    15    16    1
    29    16    17    2
    30    16     8   am
    31    15    10   ar
    32     6     1   ar
    33    29    24    1
    34    20    23    1
    35    29    30    1
