@<TRIPOS>MOLECULE
*****
 30 33 0 0 0
SMALL
GASTEIGER

@<TRIPOS>ATOM
      1 O         138.6605  142.5612  165.1416 O.3     1  UNL1       -0.3793
      2 C         139.5424  141.5855  165.8627 C.3     1  UNL1        0.1437
      3 H         137.9406  142.0825  164.7016 H       1  UNL1        0.2108
      4 C         139.2309  140.1188  165.8192 C.ar    1  UNL1        0.0226
      5 C         138.1088  139.5655  166.6467 C.ar    1  UNL1        0.0012
      6 C         137.7973  138.0989  166.6032 C.ar    1  UNL1        0.0204
      7 C         138.6079  137.1855  165.7322 C.ar    1  UNL1        0.0988
      8 N         139.7300  137.7388  164.9046 N.ar    1  UNL1       -0.2441
      9 C         140.0415  139.2054  164.9481 C.ar    1  UNL1        0.0796
     10 C         141.1636  139.7587  164.1206 C.ar    1  UNL1        0.0191
     11 C         140.8627  140.5600  162.8888 C.ar    1  UNL1        0.0129
     12 C         141.9848  141.1133  162.0613 C.ar    1  UNL1        0.0586
     13 CL        141.6838  141.9146  160.8294 Cl      1  UNL1       -0.0822
     14 C         143.4078  140.8653  162.4656 C.ar    1  UNL1        0.0228
     15 C         143.7087  140.0640  163.6974 C.ar    1  UNL1        0.0586
     16 CL        145.1318  139.8160  164.1017 Cl      1  UNL1       -0.0822
     17 C         142.5866  139.5107  164.5249 C.ar    1  UNL1        0.0129
     18 C         140.7359  142.0764  166.6273 C.3     1  UNL1        0.0950
     19 C         140.8003  141.8944  168.1148 C.ar    1  UNL1        0.0050
     20 C         141.1439  140.5532  168.6922 C.ar    1  UNL1       -0.0007
     21 C         141.2084  140.3712  170.1797 C.ar    1  UNL1        0.0204
     22 C         140.9292  141.5304  171.0899 C.ar    1  UNL1        0.0989
     23 N         140.5857  142.8715  170.5126 N.ar    1  UNL1       -0.2426
     24 C         140.5212  143.0535  169.0250 C.ar    1  UNL1        0.0950
     25 C         141.8649  142.7493  165.9044 C.ar    1  UNL1        0.0655
     26 C         143.2764  142.5582  166.3748 C.ar    1  UNL1        0.0151
     27 C         144.4054  143.2311  165.6520 C.ar    1  UNL1        0.0028
     28 C         144.1230  144.0950  164.4588 C.ar    1  UNL1        0.0207
     29 C         142.7115  144.2861  163.9884 C.ar    1  UNL1        0.0985
     30 N         141.5825  143.6133  164.7113 N.ar    1  UNL1       -0.2477
@<TRIPOS>BOND
     1     1     2    1
     2     2     4    1
     3     4     5   ar
     4     5     6   ar
     5     6     7   ar
     6     7     8   ar
     7     8     9   ar
     8     9    10    1
     9    10    11   ar
    10    11    12   ar
    11    12    13    1
    12    12    14   ar
    13    14    15   ar
    14    15    16    1
    15    15    17   ar
    16     2    18    1
    17    18    19    1
    18    19    20   ar
    19    20    21   ar
    20    21    22   ar
    21    22    23   ar
    22    23    24   ar
    23    18    25    1
    24    25    26   ar
    25    26    27   ar
    26    27    28   ar
    27    28    29   ar
    28    29    30   ar
    29     9     4   ar
    30    17    10   ar
    31    24    19   ar
    32    30    25   ar
    33     1     3    1
@<TRIPOS>MOLECULE
*****
 30 33 0 0 0
SMALL
GASTEIGER

@<TRIPOS>ATOM
      1 O         143.3583  142.6761  167.1366 O.3     1  UNL1       -0.3793
      2 C         142.4411  142.7353  165.9511 C.3     1  UNL1        0.1437
      3 H         144.2754  142.7896  166.8418 H       1  UNL1        0.2108
      4 C         143.0045  142.9443  164.5767 C.ar    1  UNL1        0.0226
      5 C         143.3855  144.3226  164.1239 C.ar    1  UNL1        0.0012
      6 C         143.9489  144.5316  162.7495 C.ar    1  UNL1        0.0204
      7 C         144.1313  143.3623  161.8280 C.ar    1  UNL1        0.0988
      8 N         143.7503  141.9840  162.2808 N.ar    1  UNL1       -0.2441
      9 C         143.1870  141.7750  163.6551 C.ar    1  UNL1        0.0796
     10 C         142.8060  140.3966  164.1079 C.ar    1  UNL1        0.0191
     11 C         141.6562  139.6850  163.4588 C.ar    1  UNL1        0.0129
     12 C         141.2752  138.3066  163.9116 C.ar    1  UNL1        0.0586
     13 CL        140.1253  137.5950  163.2624 Cl      1  UNL1       -0.0822
     14 C         142.0441  137.6399  165.0135 C.ar    1  UNL1        0.0228
     15 C         143.1939  138.3515  165.6627 C.ar    1  UNL1        0.0586
     16 CL        143.9629  137.6848  166.7647 Cl      1  UNL1       -0.0822
     17 C         143.5749  139.7299  165.2099 C.ar    1  UNL1        0.0129
     18 C         140.9607  142.5856  166.1400 C.3     1  UNL1        0.0950
     19 C         140.0169  143.0596  165.0748 C.ar    1  UNL1        0.0050
     20 C         139.3192  142.0654  164.1945 C.ar    1  UNL1       -0.0007
     21 C         138.3754  142.5393  163.1293 C.ar    1  UNL1        0.0204
     22 C         138.1294  144.0075  162.9443 C.ar    1  UNL1        0.0989
     23 N         138.8272  145.0016  163.8246 N.ar    1  UNL1       -0.2426
     24 C         139.7709  144.5276  164.8898 C.ar    1  UNL1        0.0950
     25 C         140.4239  141.9619  167.3942 C.ar    1  UNL1        0.0655
     26 C         139.8493  140.5768  167.3564 C.ar    1  UNL1        0.0151
     27 C         139.3125  139.9531  168.6105 C.ar    1  UNL1        0.0028
     28 C         139.3503  140.7144  169.9024 C.ar    1  UNL1        0.0207
     29 C         139.9248  142.0995  169.9401 C.ar    1  UNL1        0.0985
     30 N         140.4616  142.7233  168.6860 N.ar    1  UNL1       -0.2477
@<TRIPOS>BOND
     1     1     2    1
     2     2     4    1
     3     4     5   ar
     4     5     6   ar
     5     6     7   ar
     6     7     8   ar
     7     8     9   ar
     8     9    10    1
     9    10    11   ar
    10    11    12   ar
    11    12    13    1
    12    12    14   ar
    13    14    15   ar
    14    15    16    1
    15    15    17   ar
    16     2    18    1
    17    18    19    1
    18    19    20   ar
    19    20    21   ar
    20    21    22   ar
    21    22    23   ar
    22    23    24   ar
    23    18    25    1
    24    25    26   ar
    25    26    27   ar
    26    27    28   ar
    27    28    29   ar
    28    29    30   ar
    29     9     4   ar
    30    17    10   ar
    31    24    19   ar
    32    30    25   ar
    33     1     3    1
@<TRIPOS>MOLECULE
*****
 30 33 0 0 0
SMALL
GASTEIGER

@<TRIPOS>ATOM
      1 O         140.2222  143.4371  167.7644 O.3     1  UNL1       -0.3793
      2 C         140.2735  141.9956  167.3530 C.3     1  UNL1        0.1437
      3 H         140.6796  143.5477  168.6127 H       1  UNL1        0.2108
      4 C         140.9645  140.9905  168.2262 C.ar    1  UNL1        0.0226
      5 C         140.3002  140.5037  169.4799 C.ar    1  UNL1        0.0012
      6 C         140.9911  139.4987  170.3531 C.ar    1  UNL1        0.0204
      7 C         142.3464  138.9805  169.9727 C.ar    1  UNL1        0.0988
      8 N         143.0107  139.4674  168.7190 N.ar    1  UNL1       -0.2441
      9 C         142.3198  140.4724  167.8458 C.ar    1  UNL1        0.0796
     10 C         142.9841  140.9592  166.5922 C.ar    1  UNL1        0.0191
     11 C         143.3162  142.4136  166.4356 C.ar    1  UNL1        0.0129
     12 C         143.9806  142.9004  165.1819 C.ar    1  UNL1        0.0586
     13 CL        144.3127  144.3548  165.0253 Cl      1  UNL1       -0.0822
     14 C         144.3128  141.9329  164.0849 C.ar    1  UNL1        0.0228
     15 C         143.9807  140.4786  164.2415 C.ar    1  UNL1        0.0586
     16 CL        144.3130  139.5110  163.1444 Cl      1  UNL1       -0.0822
     17 C         143.3164  139.9917  165.4951 C.ar    1  UNL1        0.0129
     18 C         139.6339  141.5590  166.0684 C.3     1  UNL1        0.0950
     19 C         139.2993  140.1132  165.8506 C.ar    1  UNL1        0.0050
     20 C         138.2421  139.4539  166.6860 C.ar    1  UNL1       -0.0007
     21 C         137.9075  138.0080  166.4682 C.ar    1  UNL1        0.0204
     22 C         138.6300  137.2214  165.4150 C.ar    1  UNL1        0.0989
     23 N         139.6871  137.8806  164.5796 N.ar    1  UNL1       -0.2426
     24 C         140.0218  139.3265  164.7974 C.ar    1  UNL1        0.0950
     25 C         139.3289  142.5684  165.0015 C.ar    1  UNL1        0.0655
     26 C         138.0050  142.5382  164.2969 C.ar    1  UNL1        0.0151
     27 C         137.6999  143.5475  163.2301 C.ar    1  UNL1        0.0028
     28 C         138.7187  144.5870  162.8678 C.ar    1  UNL1        0.0207
     29 C         140.0426  144.6173  163.5723 C.ar    1  UNL1        0.0985
     30 N         140.3477  143.6080  164.6392 N.ar    1  UNL1       -0.2477
@<TRIPOS>BOND
     1     1     2    1
     2     2     4    1
     3     4     5   ar
     4     5     6   ar
     5     6     7   ar
     6     7     8   ar
     7     8     9   ar
     8     9    10    1
     9    10    11   ar
    10    11    12   ar
    11    12    13    1
    12    12    14   ar
    13    14    15   ar
    14    15    16    1
    15    15    17   ar
    16     2    18    1
    17    18    19    1
    18    19    20   ar
    19    20    21   ar
    20    21    22   ar
    21    22    23   ar
    22    23    24   ar
    23    18    25    1
    24    25    26   ar
    25    26    27   ar
    26    27    28   ar
    27    28    29   ar
    28    29    30   ar
    29     9     4   ar
    30    17    10   ar
    31    24    19   ar
    32    30    25   ar
    33     1     3    1
@<TRIPOS>MOLECULE
*****
 30 33 0 0 0
SMALL
GASTEIGER

@<TRIPOS>ATOM
      1 O         140.1700  143.4925  167.6678 O.3     1  UNL1       -0.3793
      2 C         140.2402  142.0450  167.2808 C.3     1  UNL1        0.1437
      3 H         140.6022  143.6187  168.5270 H       1  UNL1        0.2108
      4 C         140.9107  141.0574  168.1892 C.ar    1  UNL1        0.0226
      5 C         140.2075  140.5764  169.4238 C.ar    1  UNL1        0.0012
      6 C         140.8780  139.5889  170.3322 C.ar    1  UNL1        0.0204
      7 C         142.2516  139.0823  170.0060 C.ar    1  UNL1        0.0988
      8 N         142.9548  139.5632  168.7714 N.ar    1  UNL1       -0.2441
      9 C         142.2843  140.5507  167.8630 C.ar    1  UNL1        0.0796
     10 C         142.9875  141.0317  166.6284 C.ar    1  UNL1        0.0191
     11 C         143.3669  142.4768  166.4962 C.ar    1  UNL1        0.0129
     12 C         144.0701  142.9578  165.2616 C.ar    1  UNL1        0.0586
     13 CL        144.4495  144.4030  165.1295 Cl      1  UNL1       -0.0822
     14 C         144.3939  141.9935  164.1592 C.ar    1  UNL1        0.0228
     15 C         144.0146  140.5483  164.2914 C.ar    1  UNL1        0.0586
     16 CL        144.3384  139.5840  163.1890 Cl      1  UNL1       -0.0822
     17 C         143.3114  140.0674  165.5260 C.ar    1  UNL1        0.0129
     18 C         139.6399  141.5850  165.9854 C.3     1  UNL1        0.0950
     19 C         139.3756  142.5734  164.8885 C.ar    1  UNL1        0.0050
     20 C         140.5206  143.2689  164.2136 C.ar    1  UNL1       -0.0007
     21 C         140.2563  144.2573  163.1167 C.ar    1  UNL1        0.0204
     22 C         138.8469  144.5502  162.6947 C.ar    1  UNL1        0.0989
     23 N         137.7020  143.8547  163.3695 N.ar    1  UNL1       -0.2426
     24 C         137.9664  142.8663  164.4664 C.ar    1  UNL1        0.0950
     25 C         139.3039  140.1366  165.7869 C.ar    1  UNL1        0.0655
     26 C         138.2381  139.4925  166.6231 C.ar    1  UNL1        0.0151
     27 C         137.9021  138.0442  166.4246 C.ar    1  UNL1        0.0028
     28 C         138.6319  137.2400  165.3899 C.ar    1  UNL1        0.0207
     29 C         139.6977  137.8841  164.5538 C.ar    1  UNL1        0.0985
     30 N         140.0337  139.3324  164.7522 N.ar    1  UNL1       -0.2477
@<TRIPOS>BOND
     1     1     2    1
     2     2     4    1
     3     4     5   ar
     4     5     6   ar
     5     6     7   ar
     6     7     8   ar
     7     8     9   ar
     8     9    10    1
     9    10    11   ar
    10    11    12   ar
    11    12    13    1
    12    12    14   ar
    13    14    15   ar
    14    15    16    1
    15    15    17   ar
    16     2    18    1
    17    18    19    1
    18    19    20   ar
    19    20    21   ar
    20    21    22   ar
    21    22    23   ar
    22    23    24   ar
    23    18    25    1
    24    25    26   ar
    25    26    27   ar
    26    27    28   ar
    27    28    29   ar
    28    29    30   ar
    29     9     4   ar
    30    17    10   ar
    31    24    19   ar
    32    30    25   ar
    33     1     3    1
@<TRIPOS>MOLECULE
*****
 30 33 0 0 0
SMALL
GASTEIGER

@<TRIPOS>ATOM
      1 O         139.7319  139.9095  167.4289 O.3     1  UNL1       -0.3793
      2 C         139.9607  140.8333  166.2694 C.3     1  UNL1        0.1437
      3 H         139.3155  139.0921  167.1138 H       1  UNL1        0.2108
      4 C         139.5536  140.4168  164.8870 C.ar    1  UNL1        0.0226
      5 C         138.1309  140.5836  164.4419 C.ar    1  UNL1        0.0012
      6 C         137.7239  140.1671  163.0596 C.ar    1  UNL1        0.0204
      7 C         138.7394  139.5838  162.1224 C.ar    1  UNL1        0.0988
      8 N         140.1621  139.4170  162.5676 N.ar    1  UNL1       -0.2441
      9 C         140.5692  139.8335  163.9499 C.ar    1  UNL1        0.0796
     10 C         141.9919  139.6667  164.3950 C.ar    1  UNL1        0.0191
     11 C         142.3376  138.6404  165.4329 C.ar    1  UNL1        0.0129
     12 C         143.7603  138.4736  165.8780 C.ar    1  UNL1        0.0586
     13 CL        144.1060  137.4473  166.9159 Cl      1  UNL1       -0.0822
     14 C         144.8373  139.3331  165.2853 C.ar    1  UNL1        0.0228
     15 C         144.4916  140.3593  164.2474 C.ar    1  UNL1        0.0586
     16 CL        145.5686  141.2188  163.6546 Cl      1  UNL1       -0.0822
     17 C         143.0689  140.5261  163.8023 C.ar    1  UNL1        0.0129
     18 C         140.5965  142.1734  166.4923 C.3     1  UNL1        0.0950
     19 C         141.3181  142.4570  167.7763 C.ar    1  UNL1        0.0050
     20 C         142.7590  142.0685  167.9285 C.ar    1  UNL1       -0.0007
     21 C         143.4806  142.3521  169.2126 C.ar    1  UNL1        0.0204
     22 C         142.7613  143.0242  170.3445 C.ar    1  UNL1        0.0989
     23 N         141.3205  143.4126  170.1923 N.ar    1  UNL1       -0.2426
     24 C         140.5989  143.1290  168.9082 C.ar    1  UNL1        0.0950
     25 C         140.5108  143.2300  165.4310 C.ar    1  UNL1        0.0655
     26 C         139.1982  143.8947  165.1388 C.ar    1  UNL1        0.0151
     27 C         139.1124  144.9513  164.0776 C.ar    1  UNL1        0.0028
     28 C         140.3392  145.3432  163.3085 C.ar    1  UNL1        0.0207
     29 C         141.6517  144.6785  163.6007 C.ar    1  UNL1        0.0985
     30 N         141.7375  143.6219  164.6619 N.ar    1  UNL1       -0.2477
@<TRIPOS>BOND
     1     1     2    1
     2     2     4    1
     3     4     5   ar
     4     5     6   ar
     5     6     7   ar
     6     7     8   ar
     7     8     9   ar
     8     9    10    1
     9    10    11   ar
    10    11    12   ar
    11    12    13    1
    12    12    14   ar
    13    14    15   ar
    14    15    16    1
    15    15    17   ar
    16     2    18    1
    17    18    19    1
    18    19    20   ar
    19    20    21   ar
    20    21    22   ar
    21    22    23   ar
    22    23    24   ar
    23    18    25    1
    24    25    26   ar
    25    26    27   ar
    26    27    28   ar
    27    28    29   ar
    28    29    30   ar
    29     9     4   ar
    30    17    10   ar
    31    24    19   ar
    32    30    25   ar
    33     1     3    1
@<TRIPOS>MOLECULE
*****
 30 33 0 0 0
SMALL
GASTEIGER

@<TRIPOS>ATOM
      1 O         143.9677  139.6359  165.1111 O.3     1  UNL1       -0.3793
      2 C         143.0357  140.7261  165.5503 C.3     1  UNL1        0.1437
      3 H         144.5953  139.9893  164.4614 H       1  UNL1        0.2108
      4 C         143.1757  142.1070  164.9813 C.ar    1  UNL1        0.0226
      5 C         144.1627  143.0669  165.5768 C.ar    1  UNL1        0.0012
      6 C         144.3028  144.4477  165.0079 C.ar    1  UNL1        0.0204
      7 C         143.4559  144.8686  163.8436 C.ar    1  UNL1        0.0988
      8 N         142.4690  143.9087  163.2482 N.ar    1  UNL1       -0.2441
      9 C         142.3289  142.5279  163.8171 C.ar    1  UNL1        0.0796
     10 C         141.3419  141.5680  163.2216 C.ar    1  UNL1        0.0191
     11 C         139.8833  141.6932  163.5481 C.ar    1  UNL1        0.0129
     12 C         138.8963  140.7333  162.9526 C.ar    1  UNL1        0.0586
     13 CL        137.4376  140.8586  163.2791 Cl      1  UNL1       -0.0822
     14 C         139.3680  139.6482  162.0307 C.ar    1  UNL1        0.0228
     15 C         140.8267  139.5230  161.7043 C.ar    1  UNL1        0.0586
     16 CL        141.2985  138.4378  160.7824 Cl      1  UNL1       -0.0822
     17 C         141.8136  140.4829  162.2997 C.ar    1  UNL1        0.0129
     18 C         141.9636  140.4354  166.5583 C.3     1  UNL1        0.0950
     19 C         142.0447  141.0312  167.9325 C.ar    1  UNL1        0.0050
     20 C         141.5003  142.4055  168.1874 C.ar    1  UNL1       -0.0007
     21 C         141.5814  143.0014  169.5616 C.ar    1  UNL1        0.0204
     22 C         142.2070  142.2228  170.6809 C.ar    1  UNL1        0.0989
     23 N         142.7514  140.8486  170.4259 N.ar    1  UNL1       -0.2426
     24 C         142.6702  140.2528  169.0517 C.ar    1  UNL1        0.0950
     25 C         140.8103  139.5489  166.1921 C.ar    1  UNL1        0.0655
     26 C         139.4521  139.8062  166.7745 C.ar    1  UNL1        0.0151
     27 C         138.2988  138.9197  166.4083 C.ar    1  UNL1        0.0028
     28 C         138.5037  137.7760  165.4598 C.ar    1  UNL1        0.0207
     29 C         139.8619  137.5186  164.8774 C.ar    1  UNL1        0.0985
     30 N         141.0151  138.4051  165.2436 N.ar    1  UNL1       -0.2477
@<TRIPOS>BOND
     1     1     2    1
     2     2     4    1
     3     4     5   ar
     4     5     6   ar
     5     6     7   ar
     6     7     8   ar
     7     8     9   ar
     8     9    10    1
     9    10    11   ar
    10    11    12   ar
    11    12    13    1
    12    12    14   ar
    13    14    15   ar
    14    15    16    1
    15    15    17   ar
    16     2    18    1
    17    18    19    1
    18    19    20   ar
    19    20    21   ar
    20    21    22   ar
    21    22    23   ar
    22    23    24   ar
    23    18    25    1
    24    25    26   ar
    25    26    27   ar
    26    27    28   ar
    27    28    29   ar
    28    29    30   ar
    29     9     4   ar
    30    17    10   ar
    31    24    19   ar
    32    30    25   ar
    33     1     3    1
@<TRIPOS>MOLECULE
*****
 30 33 0 0 0
SMALL
GASTEIGER

@<TRIPOS>ATOM
      1 O         142.8657  139.3138  164.5040 O.3     1  UNL1       -0.3793
      2 C         141.7895  139.8220  165.4169 C.3     1  UNL1        0.1437
      3 H         143.7260  139.3874  164.9459 H       1  UNL1        0.2108
      4 C         142.1440  140.3363  166.7808 C.ar    1  UNL1        0.0226
      5 C         142.4746  139.3737  167.8827 C.ar    1  UNL1        0.0012
      6 C         142.8290  139.8879  169.2464 C.ar    1  UNL1        0.0204
      7 C         142.8529  141.3647  169.5083 C.ar    1  UNL1        0.0988
      8 N         142.5223  142.3272  168.4064 N.ar    1  UNL1       -0.2441
      9 C         142.1679  141.8130  167.0426 C.ar    1  UNL1        0.0796
     10 C         141.8373  142.7756  165.9407 C.ar    1  UNL1        0.0191
     11 C         142.9030  143.2082  164.9779 C.ar    1  UNL1        0.0129
     12 C         142.5724  144.1707  163.8760 C.ar    1  UNL1        0.0586
     13 CL        143.6382  144.6033  162.9131 Cl      1  UNL1       -0.0822
     14 C         141.1761  144.7007  163.7369 C.ar    1  UNL1        0.0228
     15 C         140.1104  144.2681  164.6997 C.ar    1  UNL1        0.0586
     16 CL        138.7139  144.7981  164.5607 Cl      1  UNL1       -0.0822
     17 C         140.4410  143.3055  165.8016 C.ar    1  UNL1        0.0129
     18 C         140.3589  139.8160  164.9662 C.3     1  UNL1        0.0950
     19 C         139.3368  139.0226  165.7250 C.ar    1  UNL1        0.0050
     20 C         138.8884  137.6877  165.2080 C.ar    1  UNL1       -0.0007
     21 C         137.8663  136.8943  165.9668 C.ar    1  UNL1        0.0204
     22 C         137.2925  137.4358  167.2426 C.ar    1  UNL1        0.0989
     23 N         137.7408  138.7706  167.7595 N.ar    1  UNL1       -0.2426
     24 C         138.7630  139.5640  167.0007 C.ar    1  UNL1        0.0950
     25 C         139.9503  140.6034  163.7565 C.ar    1  UNL1        0.0655
     26 C         138.5211  141.0246  163.5834 C.ar    1  UNL1        0.0151
     27 C         138.1125  141.8119  162.3738 C.ar    1  UNL1        0.0028
     28 C         139.1331  142.1780  161.3374 C.ar    1  UNL1        0.0207
     29 C         140.5623  141.7568  161.5105 C.ar    1  UNL1        0.0985
     30 N         140.9709  140.9694  162.7200 N.ar    1  UNL1       -0.2477
@<TRIPOS>BOND
     1     1     2    1
     2     2     4    1
     3     4     5   ar
     4     5     6   ar
     5     6     7   ar
     6     7     8   ar
     7     8     9   ar
     8     9    10    1
     9    10    11   ar
    10    11    12   ar
    11    12    13    1
    12    12    14   ar
    13    14    15   ar
    14    15    16    1
    15    15    17   ar
    16     2    18    1
    17    18    19    1
    18    19    20   ar
    19    20    21   ar
    20    21    22   ar
    21    22    23   ar
    22    23    24   ar
    23    18    25    1
    24    25    26   ar
    25    26    27   ar
    26    27    28   ar
    27    28    29   ar
    28    29    30   ar
    29     9     4   ar
    30    17    10   ar
    31    24    19   ar
    32    30    25   ar
    33     1     3    1
@<TRIPOS>MOLECULE
*****
 30 33 0 0 0
SMALL
GASTEIGER

@<TRIPOS>ATOM
      1 O         140.2415  142.7997  167.2034 O.3     1  UNL1       -0.3793
      2 C         140.5991  142.5650  165.7657 C.3     1  UNL1        0.1437
      3 H         139.3698  143.2220  167.2549 H       1  UNL1        0.2108
      4 C         139.6491  142.9756  164.6798 C.ar    1  UNL1        0.0226
      5 C         139.5427  144.4180  164.2824 C.ar    1  UNL1        0.0012
      6 C         138.5928  144.8286  163.1966 C.ar    1  UNL1        0.0204
      7 C         137.7493  143.7968  162.5083 C.ar    1  UNL1        0.0988
      8 N         137.8557  142.3543  162.9057 N.ar    1  UNL1       -0.2441
      9 C         138.8057  141.9437  163.9915 C.ar    1  UNL1        0.0796
     10 C         138.9121  140.5013  164.3890 C.ar    1  UNL1        0.0191
     11 C         139.8059  139.5751  163.6188 C.ar    1  UNL1        0.0129
     12 C         139.9123  138.1326  164.0163 C.ar    1  UNL1        0.0586
     13 CL        140.8062  137.2064  163.2460 Cl      1  UNL1       -0.0822
     14 C         139.1250  137.6164  165.1840 C.ar    1  UNL1        0.0228
     15 C         138.2312  138.5425  165.9542 C.ar    1  UNL1        0.0586
     16 CL        137.4438  138.0263  167.1219 Cl      1  UNL1       -0.0822
     17 C         138.1248  139.9850  165.5567 C.ar    1  UNL1        0.0129
     18 C         141.9066  141.9196  165.4139 C.3     1  UNL1        0.0950
     19 C         142.7340  142.4663  164.2884 C.ar    1  UNL1        0.0050
     20 C         143.3336  143.8371  164.3955 C.ar    1  UNL1       -0.0007
     21 C         144.1610  144.3838  163.2700 C.ar    1  UNL1        0.0204
     22 C         144.3887  143.5596  162.0375 C.ar    1  UNL1        0.0989
     23 N         143.7891  142.1889  161.9305 N.ar    1  UNL1       -0.2426
     24 C         142.9618  141.6422  163.0560 C.ar    1  UNL1        0.0950
     25 C         142.3869  140.7275  166.1874 C.ar    1  UNL1        0.0655
     26 C         143.0489  139.5868  165.4729 C.ar    1  UNL1        0.0151
     27 C         143.5291  138.3948  166.2464 C.ar    1  UNL1        0.0028
     28 C         143.3473  138.3434  167.7345 C.ar    1  UNL1        0.0207
     29 C         142.6853  139.4841  168.4490 C.ar    1  UNL1        0.0985
     30 N         142.2051  140.6762  167.6755 N.ar    1  UNL1       -0.2477
@<TRIPOS>BOND
     1     1     2    1
     2     2     4    1
     3     4     5   ar
     4     5     6   ar
     5     6     7   ar
     6     7     8   ar
     7     8     9   ar
     8     9    10    1
     9    10    11   ar
    10    11    12   ar
    11    12    13    1
    12    12    14   ar
    13    14    15   ar
    14    15    16    1
    15    15    17   ar
    16     2    18    1
    17    18    19    1
    18    19    20   ar
    19    20    21   ar
    20    21    22   ar
    21    22    23   ar
    22    23    24   ar
    23    18    25    1
    24    25    26   ar
    25    26    27   ar
    26    27    28   ar
    27    28    29   ar
    28    29    30   ar
    29     9     4   ar
    30    17    10   ar
    31    24    19   ar
    32    30    25   ar
    33     1     3    1
@<TRIPOS>MOLECULE
*****
 30 33 0 0 0
SMALL
GASTEIGER

@<TRIPOS>ATOM
      1 O         140.1704  143.0724  167.2731 O.3     1  UNL1       -0.3793
      2 C         141.1014  142.6714  166.1675 C.3     1  UNL1        0.1437
      3 H         139.4165  143.5565  166.9013 H       1  UNL1        0.2108
      4 C         140.7811  143.0358  164.7480 C.ar    1  UNL1        0.0226
      5 C         141.0572  144.4233  164.2494 C.ar    1  UNL1        0.0012
      6 C         140.7369  144.7877  162.8301 C.ar    1  UNL1        0.0204
      7 C         140.1406  143.7647  161.9094 C.ar    1  UNL1        0.0988
      8 N         139.8646  142.3772  162.4080 N.ar    1  UNL1       -0.2441
      9 C         140.1848  142.0127  163.8274 C.ar    1  UNL1        0.0796
     10 C         139.9088  140.6252  164.3260 C.ar    1  UNL1        0.0191
     11 C         140.6606  139.4597  163.7550 C.ar    1  UNL1        0.0129
     12 C         140.3845  138.0722  164.2536 C.ar    1  UNL1        0.0586
     13 CL        141.1364  136.9065  163.6826 Cl      1  UNL1       -0.0822
     14 C         139.3567  137.8503  165.3233 C.ar    1  UNL1        0.0228
     15 C         138.6048  139.0159  165.8943 C.ar    1  UNL1        0.0586
     16 CL        137.5769  138.7940  166.9640 Cl      1  UNL1       -0.0822
     17 C         138.8809  140.4033  165.3956 C.ar    1  UNL1        0.0129
     18 C         142.3527  141.9060  166.4812 C.3     1  UNL1        0.0950
     19 C         142.5300  141.2800  167.8328 C.ar    1  UNL1        0.0050
     20 C         142.0461  139.8821  168.0812 C.ar    1  UNL1       -0.0007
     21 C         142.2234  139.2561  169.4328 C.ar    1  UNL1        0.0204
     22 C         142.8846  140.0281  170.5360 C.ar    1  UNL1        0.0989
     23 N         143.3684  141.4260  170.2875 N.ar    1  UNL1       -0.2426
     24 C         143.1911  142.0520  168.9359 C.ar    1  UNL1        0.0950
     25 C         143.4267  141.7665  165.4434 C.ar    1  UNL1        0.0655
     26 C         144.2301  142.9638  165.0299 C.ar    1  UNL1        0.0151
     27 C         145.3041  142.8244  163.9921 C.ar    1  UNL1        0.0028
     28 C         145.5747  141.4876  163.3678 C.ar    1  UNL1        0.0207
     29 C         144.7713  140.2903  163.7813 C.ar    1  UNL1        0.0985
     30 N         143.6973  140.4297  164.8191 N.ar    1  UNL1       -0.2477
@<TRIPOS>BOND
     1     1     2    1
     2     2     4    1
     3     4     5   ar
     4     5     6   ar
     5     6     7   ar
     6     7     8   ar
     7     8     9   ar
     8     9    10    1
     9    10    11   ar
    10    11    12   ar
    11    12    13    1
    12    12    14   ar
    13    14    15   ar
    14    15    16    1
    15    15    17   ar
    16     2    18    1
    17    18    19    1
    18    19    20   ar
    19    20    21   ar
    20    21    22   ar
    21    22    23   ar
    22    23    24   ar
    23    18    25    1
    24    25    26   ar
    25    26    27   ar
    26    27    28   ar
    27    28    29   ar
    28    29    30   ar
    29     9     4   ar
    30    17    10   ar
    31    24    19   ar
    32    30    25   ar
    33     1     3    1
