@<TRIPOS>MOLECULE
*****
 22 23 0 0 0
SMALL
GASTEIGER

@<TRIPOS>ATOM
      1 C         140.3754  140.4695  166.2571 C.3     1  UNL1        0.0459
      2 C         141.7417  140.0744  165.7802 C.ar    1  UNL1       -0.0184
      3 C         142.4894  138.9748  166.4743 C.ar    1  UNL1       -0.0040
      4 C         143.8556  138.5797  165.9974 C.ar    1  UNL1       -0.0003
      5 C         144.4740  139.2842  164.8264 C.ar    1  UNL1       -0.0000
      6 C         143.7263  140.3838  164.1324 C.ar    1  UNL1       -0.0003
      7 C         142.3601  140.7789  164.6092 C.ar    1  UNL1       -0.0040
      8 C         140.2116  141.1480  167.5848 C.ar    1  UNL1       -0.0184
      9 C         139.6225  140.3982  168.7426 C.ar    1  UNL1       -0.0040
     10 C         139.4587  141.0767  170.0703 C.ar    1  UNL1       -0.0003
     11 C         139.8841  142.5050  170.2402 C.ar    1  UNL1       -0.0000
     12 C         140.4732  143.2549  169.0823 C.ar    1  UNL1       -0.0003
     13 C         140.6370  142.5764  167.7546 C.ar    1  UNL1       -0.0040
     14 C         139.1731  140.1861  165.4062 C.3     1  UNL1        0.0244
     15 C         137.9436  138.1697  166.4893 C.3     1  UNL1        0.0171
     16 C         138.6342  138.7894  165.3107 C.3     1  UNL1        0.0546
     17 N         138.7859  138.0125  164.0366 N.3     1  UNL1       -0.3006
     18 H         138.1950  138.4686  163.3415 H       1  UNL1        0.1231
     19 C         140.1408  137.8504  163.4138 C.3     1  UNL1        0.0420
     20 C         139.7551  138.8078  162.3255 C.3     1  UNL1        0.0158
     21 C         140.5264  136.8929  164.5021 C.3     1  UNL1        0.0158
     22 C         141.4957  137.6882  162.7911 C.3     1  UNL1        0.0158
@<TRIPOS>BOND
     1    15    16    1
     2    16    14    1
     3    14     1    1
     4     1     2    1
     5     2     3   ar
     6     3     4   ar
     7     4     5   ar
     8     5     6   ar
     9     6     7   ar
    10     1     8    1
    11     8     9   ar
    12     9    10   ar
    13    10    11   ar
    14    11    12   ar
    15    12    13   ar
    16    16    17    1
    17    17    19    1
    18    19    20    1
    19    19    21    1
    20    19    22    1
    21     7     2   ar
    22    13     8   ar
    23    17    18    1
@<TRIPOS>MOLECULE
*****
 22 23 0 0 0
SMALL
GASTEIGER

@<TRIPOS>ATOM
      1 C         140.3855  140.4665  166.2454 C.3     1  UNL1        0.0459
      2 C         140.2185  141.1439  167.5734 C.ar    1  UNL1       -0.0184
      3 C         139.6341  140.3905  168.7314 C.ar    1  UNL1       -0.0040
      4 C         139.4671  141.0679  170.0592 C.ar    1  UNL1       -0.0003
      5 C         139.8844  142.4986  170.2291 C.ar    1  UNL1       -0.0000
      6 C         140.4687  143.2520  169.0711 C.ar    1  UNL1       -0.0003
      7 C         140.6357  142.5746  167.7433 C.ar    1  UNL1       -0.0040
      8 C         141.7529  140.0723  165.7714 C.ar    1  UNL1       -0.0184
      9 C         142.4989  138.9715  166.4654 C.ar    1  UNL1       -0.0040
     10 C         143.8663  138.5772  165.9914 C.ar    1  UNL1       -0.0003
     11 C         144.4878  139.2838  164.8233 C.ar    1  UNL1       -0.0000
     12 C         143.7419  140.3847  164.1292 C.ar    1  UNL1       -0.0003
     13 C         142.3744  140.7789  164.6032 C.ar    1  UNL1       -0.0040
     14 C         139.1852  140.1834  165.3916 C.3     1  UNL1        0.0244
     15 C         137.9197  138.2041  166.5010 C.3     1  UNL1        0.0171
     16 C         138.6288  138.7924  165.3174 C.3     1  UNL1        0.0546
     17 N         138.7816  137.9897  164.0595 N.3     1  UNL1       -0.3006
     18 H         138.1696  138.4146  163.3629 H       1  UNL1        0.1231
     19 C         140.1311  137.8464  163.4205 C.3     1  UNL1        0.0420
     20 C         140.5401  136.8877  164.4992 C.3     1  UNL1        0.0158
     21 C         139.7221  138.8050  162.3418 C.3     1  UNL1        0.0158
     22 C         141.4805  137.7031  162.7815 C.3     1  UNL1        0.0158
@<TRIPOS>BOND
     1    15    16    1
     2    16    14    1
     3    14     1    1
     4     1     2    1
     5     2     3   ar
     6     3     4   ar
     7     4     5   ar
     8     5     6   ar
     9     6     7   ar
    10     1     8    1
    11     8     9   ar
    12     9    10   ar
    13    10    11   ar
    14    11    12   ar
    15    12    13   ar
    16    16    17    1
    17    17    19    1
    18    19    20    1
    19    19    21    1
    20    19    22    1
    21     7     2   ar
    22    13     8   ar
    23    17    18    1
@<TRIPOS>MOLECULE
*****
 22 23 0 0 0
SMALL
GASTEIGER

@<TRIPOS>ATOM
      1 C         141.5465  141.1909  166.3251 C.3     1  UNL1        0.0459
      2 C         140.8722  141.4347  167.6427 C.ar    1  UNL1       -0.0184
      3 C         140.1074  140.3301  168.3096 C.ar    1  UNL1       -0.0040
      4 C         139.4332  140.5740  169.6271 C.ar    1  UNL1       -0.0003
      5 C         139.5237  141.9225  170.2777 C.ar    1  UNL1       -0.0000
      6 C         140.2885  143.0272  169.6108 C.ar    1  UNL1       -0.0003
      7 C         140.9627  142.7833  168.2933 C.ar    1  UNL1       -0.0040
      8 C         142.3110  142.2957  165.6581 C.ar    1  UNL1       -0.0184
      9 C         143.7309  142.5714  166.0556 C.ar    1  UNL1       -0.0040
     10 C         144.4954  143.6762  165.3885 C.ar    1  UNL1       -0.0003
     11 C         143.8401  144.5052  164.3241 C.ar    1  UNL1       -0.0000
     12 C         142.4202  144.2296  163.9265 C.ar    1  UNL1       -0.0003
     13 C         141.6557  143.1248  164.5936 C.ar    1  UNL1       -0.0040
     14 C         141.4562  139.8423  165.6747 C.3     1  UNL1        0.0244
     15 C         143.4111  138.4194  166.6253 C.3     1  UNL1        0.0171
     16 C         142.6985  139.0307  165.4555 C.3     1  UNL1        0.0546
     17 N         143.2282  138.8303  164.0665 N.3     1  UNL1       -0.3006
     18 H         142.4450  138.5118  163.4958 H       1  UNL1        0.1231
     19 C         143.8611  139.9753  163.3328 C.3     1  UNL1        0.0420
     20 C         145.1020  139.8201  164.1610 C.3     1  UNL1        0.0158
     21 C         142.6202  140.1305  162.5045 C.3     1  UNL1        0.0158
     22 C         144.4941  141.1202  162.5990 C.3     1  UNL1        0.0158
@<TRIPOS>BOND
     1    15    16    1
     2    16    14    1
     3    14     1    1
     4     1     2    1
     5     2     3   ar
     6     3     4   ar
     7     4     5   ar
     8     5     6   ar
     9     6     7   ar
    10     1     8    1
    11     8     9   ar
    12     9    10   ar
    13    10    11   ar
    14    11    12   ar
    15    12    13   ar
    16    16    17    1
    17    17    19    1
    18    19    20    1
    19    19    21    1
    20    19    22    1
    21     7     2   ar
    22    13     8   ar
    23    17    18    1
@<TRIPOS>MOLECULE
*****
 22 23 0 0 0
SMALL
GASTEIGER

@<TRIPOS>ATOM
      1 C         140.8197  141.8049  165.9731 C.3     1  UNL1        0.0459
      2 C         140.1874  140.4596  165.7712 C.ar    1  UNL1       -0.0184
      3 C         138.8594  140.1535  166.3978 C.ar    1  UNL1       -0.0040
      4 C         138.2272  138.8083  166.1959 C.ar    1  UNL1       -0.0003
      5 C         138.9230  137.7694  165.3674 C.ar    1  UNL1       -0.0000
      6 C         140.2510  138.0755  164.7408 C.ar    1  UNL1       -0.0003
      7 C         140.8832  139.4207  164.9427 C.ar    1  UNL1       -0.0040
      8 C         141.3195  142.2025  167.3304 C.ar    1  UNL1       -0.0184
      9 C         140.4123  142.9250  168.2816 C.ar    1  UNL1       -0.0040
     10 C         140.9120  143.3227  169.6389 C.ar    1  UNL1       -0.0003
     11 C         142.3190  142.9979  170.0448 C.ar    1  UNL1       -0.0000
     12 C         143.2263  142.2754  169.0936 C.ar    1  UNL1       -0.0003
     13 C         142.7266  141.8777  167.7363 C.ar    1  UNL1       -0.0040
     14 C         140.9523  142.7523  164.8178 C.3     1  UNL1        0.0244
     15 C         139.1182  144.5725  165.0884 C.3     1  UNL1        0.0171
     16 C         139.7429  143.4663  164.2909 C.3     1  UNL1        0.0546
     17 N         139.1582  143.0741  162.9664 N.3     1  UNL1       -0.3006
     18 H         139.8898  143.2120  162.2691 H       1  UNL1        0.1231
     19 C         138.6229  141.6876  162.7639 C.3     1  UNL1        0.0420
     20 C         137.4274  142.0265  163.6041 C.3     1  UNL1        0.0158
     21 C         139.8183  141.3488  161.9236 C.3     1  UNL1        0.0158
     22 C         138.0875  140.3012  162.5614 C.3     1  UNL1        0.0158
@<TRIPOS>BOND
     1    15    16    1
     2    16    14    1
     3    14     1    1
     4     1     2    1
     5     2     3   ar
     6     3     4   ar
     7     4     5   ar
     8     5     6   ar
     9     6     7   ar
    10     1     8    1
    11     8     9   ar
    12     9    10   ar
    13    10    11   ar
    14    11    12   ar
    15    12    13   ar
    16    16    17    1
    17    17    19    1
    18    19    20    1
    19    19    21    1
    20    19    22    1
    21     7     2   ar
    22    13     8   ar
    23    17    18    1
@<TRIPOS>MOLECULE
*****
 22 23 0 0 0
SMALL
GASTEIGER

@<TRIPOS>ATOM
      1 C         140.7992  141.8136  165.9627 C.3     1  UNL1        0.0459
      2 C         141.2947  142.2174  167.3197 C.ar    1  UNL1       -0.0184
      3 C         142.7001  141.8937  167.7319 C.ar    1  UNL1       -0.0040
      4 C         143.1956  142.2975  169.0888 C.ar    1  UNL1       -0.0003
      5 C         142.2856  143.0250  170.0336 C.ar    1  UNL1       -0.0000
      6 C         140.8802  143.3487  169.6215 C.ar    1  UNL1       -0.0003
      7 C         140.3847  142.9449  168.2645 C.ar    1  UNL1       -0.0040
      8 C         140.1661  140.4682  165.7652 C.ar    1  UNL1       -0.0184
      9 C         138.8381  140.1647  166.3931 C.ar    1  UNL1       -0.0040
     10 C         138.2051  138.8192  166.1957 C.ar    1  UNL1       -0.0003
     11 C         138.9000  137.7773  165.3702 C.ar    1  UNL1       -0.0000
     12 C         140.2280  138.0807  164.7422 C.ar    1  UNL1       -0.0003
     13 C         140.8611  139.4262  164.9397 C.ar    1  UNL1       -0.0040
     14 C         140.9367  142.7552  164.8032 C.3     1  UNL1        0.0244
     15 C         139.1082  144.5824  165.0641 C.3     1  UNL1        0.0171
     16 C         139.7307  143.4715  164.2715 C.3     1  UNL1        0.0546
     17 N         139.1473  143.0767  162.9472 N.3     1  UNL1       -0.3006
     18 H         139.8802  143.2113  162.2507 H       1  UNL1        0.1231
     19 C         138.6096  141.6907  162.7477 C.3     1  UNL1        0.0420
     20 C         139.8100  141.3446  161.9174 C.3     1  UNL1        0.0158
     21 C         137.4093  142.0368  163.5780 C.3     1  UNL1        0.0158
     22 C         138.0720  140.3047  162.5482 C.3     1  UNL1        0.0158
@<TRIPOS>BOND
     1    15    16    1
     2    16    14    1
     3    14     1    1
     4     1     2    1
     5     2     3   ar
     6     3     4   ar
     7     4     5   ar
     8     5     6   ar
     9     6     7   ar
    10     1     8    1
    11     8     9   ar
    12     9    10   ar
    13    10    11   ar
    14    11    12   ar
    15    12    13   ar
    16    16    17    1
    17    17    19    1
    18    19    20    1
    19    19    21    1
    20    19    22    1
    21     7     2   ar
    22    13     8   ar
    23    17    18    1
@<TRIPOS>MOLECULE
*****
 22 23 0 0 0
SMALL
GASTEIGER

@<TRIPOS>ATOM
      1 C         141.7644  141.5894  166.0989 C.3     1  UNL1        0.0459
      2 C         143.0539  141.4552  165.3444 C.ar    1  UNL1       -0.0184
      3 C         143.7737  142.6809  164.8654 C.ar    1  UNL1       -0.0040
      4 C         145.0632  142.5466  164.1109 C.ar    1  UNL1       -0.0003
      5 C         145.6328  141.1865  163.8354 C.ar    1  UNL1       -0.0000
      6 C         144.9130  139.9608  164.3145 C.ar    1  UNL1       -0.0003
      7 C         143.6236  140.0952  165.0689 C.ar    1  UNL1       -0.0040
      8 C         141.7616  142.1708  167.4816 C.ar    1  UNL1       -0.0184
      9 C         140.5334  142.8543  168.0054 C.ar    1  UNL1       -0.0040
     10 C         140.5306  143.4356  169.3881 C.ar    1  UNL1       -0.0003
     11 C         141.7560  143.3335  170.2471 C.ar    1  UNL1       -0.0000
     12 C         142.9843  142.6501  169.7234 C.ar    1  UNL1       -0.0003
     13 C         142.9871  142.0687  168.3407 C.ar    1  UNL1       -0.0040
     14 C         140.4778  141.1424  165.4706 C.3     1  UNL1        0.0244
     15 C         140.2848  140.2379  163.0427 C.3     1  UNL1        0.0171
     16 C         140.2329  141.3828  164.0104 C.3     1  UNL1        0.0546
     17 N         139.9361  142.7682  163.5179 N.3     1  UNL1       -0.3006
     18 H         139.3230  142.6681  162.7089 H       1  UNL1        0.1231
     19 C         139.2882  143.7662  164.4313 C.3     1  UNL1        0.0420
     20 C         140.5475  144.5809  164.4344 C.3     1  UNL1        0.0158
     21 C         138.0288  142.9514  164.4282 C.3     1  UNL1        0.0158
     22 C         138.6403  144.7641  165.3447 C.3     1  UNL1        0.0158
@<TRIPOS>BOND
     1    15    16    1
     2    16    14    1
     3    14     1    1
     4     1     2    1
     5     2     3   ar
     6     3     4   ar
     7     4     5   ar
     8     5     6   ar
     9     6     7   ar
    10     1     8    1
    11     8     9   ar
    12     9    10   ar
    13    10    11   ar
    14    11    12   ar
    15    12    13   ar
    16    16    17    1
    17    17    19    1
    18    19    20    1
    19    19    21    1
    20    19    22    1
    21     7     2   ar
    22    13     8   ar
    23    17    18    1
@<TRIPOS>MOLECULE
*****
 22 23 0 0 0
SMALL
GASTEIGER

@<TRIPOS>ATOM
      1 C         140.8656  142.0116  166.4291 C.3     1  UNL1        0.0459
      2 C         140.6229  143.0801  165.4047 C.ar    1  UNL1       -0.0184
      3 C         139.2655  143.7062  165.2810 C.ar    1  UNL1       -0.0040
      4 C         139.0229  144.7746  164.2566 C.ar    1  UNL1       -0.0003
      5 C         140.1378  145.2170  163.3558 C.ar    1  UNL1       -0.0000
      6 C         141.4952  144.5909  163.4795 C.ar    1  UNL1       -0.0003
      7 C         141.7378  143.5225  164.5039 C.ar    1  UNL1       -0.0040
      8 C         141.4609  142.3687  167.7588 C.ar    1  UNL1       -0.0184
      9 C         140.6312  143.0822  168.7847 C.ar    1  UNL1       -0.0040
     10 C         141.2265  143.4394  170.1144 C.ar    1  UNL1       -0.0003
     11 C         142.6515  143.0831  170.4182 C.ar    1  UNL1       -0.0000
     12 C         143.4813  142.3696  169.3922 C.ar    1  UNL1       -0.0003
     13 C         142.8860  142.0124  168.0626 C.ar    1  UNL1       -0.0040
     14 C         140.5129  140.5859  166.1239 C.3     1  UNL1        0.0244
     15 C         139.0157  139.6883  168.0482 C.3     1  UNL1        0.0171
     16 C         139.2077  140.0182  166.5976 C.3     1  UNL1        0.0546
     17 N         138.0946  139.7805  165.6206 N.3     1  UNL1       -0.3006
     18 H         137.6028  140.6676  165.5130 H       1  UNL1        0.1231
     19 C         138.4027  139.2858  164.2385 C.3     1  UNL1        0.0420
     20 C         138.8457  137.9707  164.8080 C.3     1  UNL1        0.0158
     21 C         137.9597  140.6008  163.6691 C.3     1  UNL1        0.0158
     22 C         138.7107  138.7911  162.8564 C.3     1  UNL1        0.0158
@<TRIPOS>BOND
     1    15    16    1
     2    16    14    1
     3    14     1    1
     4     1     2    1
     5     2     3   ar
     6     3     4   ar
     7     4     5   ar
     8     5     6   ar
     9     6     7   ar
    10     1     8    1
    11     8     9   ar
    12     9    10   ar
    13    10    11   ar
    14    11    12   ar
    15    12    13   ar
    16    16    17    1
    17    17    19    1
    18    19    20    1
    19    19    21    1
    20    19    22    1
    21     7     2   ar
    22    13     8   ar
    23    17    18    1
@<TRIPOS>MOLECULE
*****
 22 23 0 0 0
SMALL
GASTEIGER

@<TRIPOS>ATOM
      1 C         140.8638  141.8618  165.7456 C.3     1  UNL1        0.0459
      2 C         140.6813  141.6819  167.2236 C.ar    1  UNL1       -0.0184
      3 C         140.7715  140.3126  167.8292 C.ar    1  UNL1       -0.0040
      4 C         140.5890  140.1327  169.3071 C.ar    1  UNL1       -0.0003
      5 C         140.3163  141.3221  170.1794 C.ar    1  UNL1       -0.0000
      6 C         140.2261  142.6914  169.5738 C.ar    1  UNL1       -0.0003
      7 C         140.4086  142.8713  168.0959 C.ar    1  UNL1       -0.0040
      8 C         141.8600  142.8570  165.2286 C.ar    1  UNL1       -0.0184
      9 C         143.3025  142.7499  165.6258 C.ar    1  UNL1       -0.0040
     10 C         144.2986  143.7450  165.1088 C.ar    1  UNL1       -0.0003
     11 C         143.8523  144.8473  164.1946 C.ar    1  UNL1       -0.0000
     12 C         142.4098  144.9545  163.7974 C.ar    1  UNL1       -0.0003
     13 C         141.4136  143.9593  164.3144 C.ar    1  UNL1       -0.0040
     14 C         140.0502  141.0466  164.7847 C.3     1  UNL1        0.0244
     15 C         138.1481  139.4712  165.5911 C.3     1  UNL1        0.0171
     16 C         138.5958  140.7989  165.0556 C.3     1  UNL1        0.0546
     17 N         137.5890  141.8789  164.7910 N.3     1  UNL1       -0.3006
     18 H         137.5358  142.4456  165.6375 H       1  UNL1        0.1231
     19 C         137.7901  142.8277  163.6468 C.3     1  UNL1        0.0420
     20 C         137.6337  141.6929  162.6784 C.3     1  UNL1        0.0158
     21 C         137.9465  143.9624  164.6151 C.3     1  UNL1        0.0158
     22 C         137.9912  143.7764  162.5025 C.3     1  UNL1        0.0158
@<TRIPOS>BOND
     1    15    16    1
     2    16    14    1
     3    14     1    1
     4     1     2    1
     5     2     3   ar
     6     3     4   ar
     7     4     5   ar
     8     5     6   ar
     9     6     7   ar
    10     1     8    1
    11     8     9   ar
    12     9    10   ar
    13    10    11   ar
    14    11    12   ar
    15    12    13   ar
    16    16    17    1
    17    17    19    1
    18    19    20    1
    19    19    21    1
    20    19    22    1
    21     7     2   ar
    22    13     8   ar
    23    17    18    1
@<TRIPOS>MOLECULE
*****
 22 23 0 0 0
SMALL
GASTEIGER

@<TRIPOS>ATOM
      1 C         141.7810  141.5018  166.1310 C.3     1  UNL1        0.0459
      2 C         141.7623  142.1221  167.4967 C.ar    1  UNL1       -0.0184
      3 C         140.5288  142.8211  167.9861 C.ar    1  UNL1       -0.0040
      4 C         140.5101  143.4413  169.3517 C.ar    1  UNL1       -0.0003
      5 C         141.7251  143.3625  170.2279 C.ar    1  UNL1       -0.0000
      6 C         142.9587  142.6635  169.7385 C.ar    1  UNL1       -0.0003
      7 C         142.9773  142.0433  168.3729 C.ar    1  UNL1       -0.0040
      8 C         143.0715  141.3937  165.3740 C.ar    1  UNL1       -0.0184
      9 C         143.6368  140.0440  165.0444 C.ar    1  UNL1       -0.0040
     10 C         144.9273  139.9358  164.2874 C.ar    1  UNL1       -0.0003
     11 C         145.6524  141.1774  163.8600 C.ar    1  UNL1       -0.0000
     12 C         145.0870  142.5272  164.1896 C.ar    1  UNL1       -0.0003
     13 C         143.7966  142.6353  164.9466 C.ar    1  UNL1       -0.0040
     14 C         140.5093  140.9897  165.5224 C.3     1  UNL1        0.0244
     15 C         140.0696  140.1056  163.1193 C.3     1  UNL1        0.0171
     16 C         140.2112  141.2522  164.0759 C.3     1  UNL1        0.0546
     17 N         140.0547  142.6613  163.5861 N.3     1  UNL1       -0.3006
     18 H         139.5382  142.6122  162.7079 H       1  UNL1        0.1231
     19 C         139.3599  143.6796  164.4407 C.3     1  UNL1        0.0420
     20 C         138.1033  142.8619  164.3932 C.3     1  UNL1        0.0158
     21 C         140.6165  144.4972  164.4882 C.3     1  UNL1        0.0158
     22 C         138.6651  144.6978  165.2953 C.3     1  UNL1        0.0158
@<TRIPOS>BOND
     1    15    16    1
     2    16    14    1
     3    14     1    1
     4     1     2    1
     5     2     3   ar
     6     3     4   ar
     7     4     5   ar
     8     5     6   ar
     9     6     7   ar
    10     1     8    1
    11     8     9   ar
    12     9    10   ar
    13    10    11   ar
    14    11    12   ar
    15    12    13   ar
    16    16    17    1
    17    17    19    1
    18    19    20    1
    19    19    21    1
    20    19    22    1
    21     7     2   ar
    22    13     8   ar
    23    17    18    1
