@<TRIPOS>MOLECULE
*****
 42 47 0 0 0
SMALL
GASTEIGER

@<TRIPOS>ATOM
      1 C         139.9512  140.9897  161.3943 C.ar    1  UNL1        0.0909
      2 N         140.3550  140.1143  160.2451 N.ar    1  UNL1       -0.2453
      3 C         140.2730  138.6221  160.3739 C.ar    1  UNL1        0.0986
      4 C         139.7871  138.0053  161.6520 C.ar    1  UNL1        0.0221
      5 C         139.3833  138.8806  162.8012 C.ar    1  UNL1        0.0199
      6 C         138.8694  138.5614  164.1738 C.ar    1  UNL1        0.0173
      7 C         138.5855  137.2590  164.8615 C.ar    1  UNL1        0.0015
      8 C         138.0660  137.2515  166.2686 C.ar    1  UNL1        0.0001
      9 C         137.8305  138.5464  166.9881 C.ar    1  UNL1        0.0015
     10 C         138.1144  139.8489  166.3004 C.ar    1  UNL1        0.0172
     11 C         138.6338  139.8564  164.8933 C.ar    1  UNL1        0.0599
     12 N         139.0022  140.9759  163.9653 N.ar    1  UNL1       -0.3262
     13 C         139.4653  140.3728  162.6723 C.ar    1  UNL1        0.0750
     14 C         140.0333  142.4819  161.2654 C.3     1  UNL1        0.1204
     15 N         141.3528  143.1393  160.9886 N.3     1  UNL1       -0.2640
     16 C         142.2320  143.5649  162.1269 C.3     1  UNL1        0.0981
     17 C         142.0493  144.9166  162.7510 C.3     1  UNL1        0.0224
     18 C         142.9285  145.3422  163.8892 C.3     1  UNL1        0.0065
     19 C         143.9906  144.4161  164.4035 C.3     1  UNL1        0.0277
     20 C         144.1734  143.0645  163.7794 C.ar    1  UNL1       -0.0073
     21 C         145.2355  142.1384  164.2936 C.ar    1  UNL1       -0.0015
     22 C         145.4183  140.7867  163.6696 C.ar    1  UNL1        0.0203
     23 C         144.5390  140.3610  162.5312 C.ar    1  UNL1        0.0985
     24 N         143.4769  141.2871  162.0170 N.ar    1  UNL1       -0.2471
     25 C         143.2941  142.6389  162.6411 C.ar    1  UNL1        0.0695
     26 C         141.7930  143.3711  159.5735 C.3     1  UNL1        0.0728
     27 C         140.7734  143.6240  158.5027 C.3     1  UNL1        0.0188
     28 C         140.2800  145.0180  158.2512 C.3     1  UNL1        0.0183
     29 N         142.4936  146.2680  157.7154 N.3     1  UNL1       -0.3211
     30 C         141.0686  145.9462  157.3756 C.3     1  UNL1        0.0652
     31 H         142.8729  146.9090  157.0185 H       1  UNL1        0.1189
     32 H         143.0437  145.4092  157.7226 H       1  UNL1        0.1189
     33 C         138.9215  142.4411  164.2758 C.3     1  UNL1        0.1075
     34 C         139.9964  143.0951  165.0923 C.3     1  UNL1        0.0418
     35 C         141.0956  142.2658  165.6873 C.3     1  UNL1        0.0742
     36 N         141.4859  142.4567  167.1230 N.3     1  UNL1       -0.2703
     37 C         140.4698  142.9292  168.1201 C.3     1  UNL1        0.0894
     38 C         140.8601  143.1200  169.5558 C.3     1  UNL1        0.0862
     39 N         142.2666  142.8385  169.9944 N.3     1  UNL1       -0.2951
     40 C         143.2828  142.3660  168.9974 C.3     1  UNL1        0.0862
     41 C         142.8924  142.1752  167.5617 C.3     1  UNL1        0.0894
     42 H         142.2113  142.1235  170.7198 H       1  UNL1        0.1233
@<TRIPOS>BOND
     1    29    30    1
     2    30    28    1
     3    28    27    1
     4    27    26    1
     5    26    15    1
     6    15    14    1
     7    14     1    1
     8     1     2   ar
     9     2     3   ar
    10     3     4   ar
    11     4     5   ar
    12     5     6   ar
    13     6     7   ar
    14     7     8   ar
    15     8     9   ar
    16     9    10   ar
    17    10    11   ar
    18    11    12   ar
    19    12    33    1
    20    33    34    1
    21    34    35    1
    22    35    36    1
    23    36    37    1
    24    37    38    1
    25    38    39    1
    26    39    40    1
    27    40    41    1
    28    12    13   ar
    29    16    15    1
    30    16    17    1
    31    17    18    1
    32    18    19    1
    33    19    20    1
    34    20    21   ar
    35    21    22   ar
    36    22    23   ar
    37    23    24   ar
    38    24    25   ar
    39    13     1   ar
    40    25    16    1
    41    13     5   ar
    42    25    20   ar
    43    11     6   ar
    44    41    36    1
    45    29    31    1
    46    29    32    1
    47    39    42    1
@<TRIPOS>MOLECULE
*****
 42 47 0 0 0
SMALL
GASTEIGER

@<TRIPOS>ATOM
      1 C         141.4988  141.4353  163.2693 C.ar    1  UNL1        0.0909
      2 N         141.3613  142.7522  162.5644 N.ar    1  UNL1       -0.2453
      3 C         140.9904  143.9822  163.3387 C.ar    1  UNL1        0.0986
      4 C         140.7570  143.8953  164.8179 C.ar    1  UNL1        0.0221
      5 C         140.8945  142.5784  165.5228 C.ar    1  UNL1        0.0199
      6 C         140.7272  142.1878  166.9613 C.ar    1  UNL1        0.0173
      7 C         140.3659  142.9818  168.1815 C.ar    1  UNL1        0.0015
      8 C         140.2721  142.3043  169.5165 C.ar    1  UNL1        0.0001
      9 C         140.5396  140.8328  169.6313 C.ar    1  UNL1        0.0015
     10 C         140.9009  140.0388  168.4111 C.ar    1  UNL1        0.0172
     11 C         140.9948  140.7163  167.0761 C.ar    1  UNL1        0.0599
     12 N         141.3273  140.1976  165.7085 N.ar    1  UNL1       -0.3262
     13 C         141.2654  141.3485  164.7485 C.ar    1  UNL1        0.0750
     14 C         141.8696  140.2054  162.4950 C.3     1  UNL1        0.1204
     15 N         143.2635  140.0448  161.9647 N.3     1  UNL1       -0.2640
     16 C         143.6236  140.6045  160.6204 C.3     1  UNL1        0.0981
     17 C         144.2077  141.9818  160.5134 C.3     1  UNL1        0.0224
     18 C         144.5678  142.5414  159.1691 C.3     1  UNL1        0.0065
     19 C         144.3438  141.7236  157.9318 C.3     1  UNL1        0.0277
     20 C         143.7597  140.3462  158.0388 C.ar    1  UNL1       -0.0073
     21 C         143.5357  139.5284  156.8015 C.ar    1  UNL1       -0.0015
     22 C         142.9515  138.1510  156.9084 C.ar    1  UNL1        0.0203
     23 C         142.5914  137.5913  158.2528 C.ar    1  UNL1        0.0985
     24 N         142.8154  138.4091  159.4901 N.ar    1  UNL1       -0.2471
     25 C         143.3996  139.7866  159.3831 C.ar    1  UNL1        0.0695
     26 C         144.2973  139.3247  162.7788 C.3     1  UNL1        0.0728
     27 C         144.8974  139.9862  163.9839 C.3     1  UNL1        0.0188
     28 C         145.4920  141.3585  163.8681 C.3     1  UNL1        0.0183
     29 N         144.3742  143.6922  163.6359 N.3     1  UNL1       -0.3211
     30 C         144.7953  142.5327  164.4892 C.3     1  UNL1        0.0652
     31 H         143.9188  144.3950  164.2181 H       1  UNL1        0.1189
     32 H         143.7226  143.3690  162.9207 H       1  UNL1        0.1189
     33 C         141.6630  138.7773  165.3618 C.3     1  UNL1        0.1075
     34 C         140.5787  137.8334  164.9340 C.3     1  UNL1        0.0418
     35 C         139.1407  138.2490  165.0317 C.3     1  UNL1        0.0742
     36 N         138.5083  139.0300  163.9182 N.3     1  UNL1       -0.2703
     37 C         138.3749  138.4188  162.5549 C.3     1  UNL1        0.0894
     38 C         137.7426  139.1999  161.4413 C.3     1  UNL1        0.0862
     39 N         137.2436  140.5923  161.6910 N.3     1  UNL1       -0.2951
     40 C         137.3770  141.2035  163.0543 C.3     1  UNL1        0.0862
     41 C         138.0094  140.4224  164.1679 C.3     1  UNL1        0.0894
     42 H         136.2493  140.5940  161.4636 H       1  UNL1        0.1233
@<TRIPOS>BOND
     1    29    30    1
     2    30    28    1
     3    28    27    1
     4    27    26    1
     5    26    15    1
     6    15    14    1
     7    14     1    1
     8     1     2   ar
     9     2     3   ar
    10     3     4   ar
    11     4     5   ar
    12     5     6   ar
    13     6     7   ar
    14     7     8   ar
    15     8     9   ar
    16     9    10   ar
    17    10    11   ar
    18    11    12   ar
    19    12    33    1
    20    33    34    1
    21    34    35    1
    22    35    36    1
    23    36    37    1
    24    37    38    1
    25    38    39    1
    26    39    40    1
    27    40    41    1
    28    12    13   ar
    29    16    15    1
    30    16    17    1
    31    17    18    1
    32    18    19    1
    33    19    20    1
    34    20    21   ar
    35    21    22   ar
    36    22    23   ar
    37    23    24   ar
    38    24    25   ar
    39    13     1   ar
    40    25    16    1
    41    13     5   ar
    42    25    20   ar
    43    11     6   ar
    44    41    36    1
    45    29    31    1
    46    29    32    1
    47    39    42    1
@<TRIPOS>MOLECULE
*****
 42 47 0 0 0
SMALL
GASTEIGER

@<TRIPOS>ATOM
      1 C         139.9762  139.5596  164.8962 C.ar    1  UNL1        0.0909
      2 N         138.5829  139.0041  164.9057 N.ar    1  UNL1       -0.2453
      3 C         137.8437  138.8554  166.2024 C.ar    1  UNL1        0.0986
      4 C         138.4977  139.2621  167.4895 C.ar    1  UNL1        0.0221
      5 C         139.8910  139.8176  167.4800 C.ar    1  UNL1        0.0199
      6 C         140.7868  140.3000  168.5823 C.ar    1  UNL1        0.0173
      7 C         140.5922  140.3901  170.0668 C.ar    1  UNL1        0.0015
      8 C         141.6905  140.9271  170.9359 C.ar    1  UNL1        0.0001
      9 C         142.9833  141.3740  170.3204 C.ar    1  UNL1        0.0015
     10 C         143.1779  141.2839  168.8359 C.ar    1  UNL1        0.0172
     11 C         142.0796  140.7469  167.9668 C.ar    1  UNL1        0.0599
     12 N         141.9829  140.5407  166.4842 N.ar    1  UNL1       -0.3262
     13 C         140.6302  139.9664  166.1833 C.ar    1  UNL1        0.0750
     14 C         140.7154  139.7083  163.5995 C.3     1  UNL1        0.1204
     15 N         140.3680  140.8266  162.6621 N.3     1  UNL1       -0.2640
     16 C         140.1173  142.2046  163.1989 C.3     1  UNL1        0.0981
     17 C         138.7447  142.5897  163.6651 C.3     1  UNL1        0.0224
     18 C         138.4940  143.9677  164.2018 C.3     1  UNL1        0.0065
     19 C         139.6161  144.9607  164.2724 C.3     1  UNL1        0.0277
     20 C         140.9887  144.5757  163.8062 C.ar    1  UNL1       -0.0073
     21 C         142.1108  145.5687  163.8768 C.ar    1  UNL1       -0.0015
     22 C         143.4835  145.1836  163.4106 C.ar    1  UNL1        0.0203
     23 C         143.7342  143.8055  162.8738 C.ar    1  UNL1        0.0985
     24 N         142.6122  142.8125  162.8032 N.ar    1  UNL1       -0.2471
     25 C         141.2394  143.1976  163.2694 C.ar    1  UNL1        0.0695
     26 C         140.2713  140.5668  161.1879 C.3     1  UNL1        0.0728
     27 C         138.9312  140.3433  160.5521 C.3     1  UNL1        0.0188
     28 C         137.7758  139.8708  161.3838 C.3     1  UNL1        0.0183
     29 N         138.3680  137.4972  162.2583 N.3     1  UNL1       -0.3211
     30 C         137.4672  138.4058  161.4754 C.3     1  UNL1        0.0652
     31 H         138.0103  136.5430  162.2138 H       1  UNL1        0.1189
     32 H         138.3984  137.8039  163.2306 H       1  UNL1        0.1189
     33 C         143.0512  140.8539  165.4789 C.3     1  UNL1        0.1075
     34 C         143.9465  139.7627  164.9713 C.3     1  UNL1        0.0418
     35 C         144.7533  139.9736  163.7244 C.3     1  UNL1        0.0742
     36 N         144.2100  139.5357  162.3966 N.3     1  UNL1       -0.2703
     37 C         144.2909  140.4540  161.2134 C.3     1  UNL1        0.0894
     38 C         143.7476  140.0160  159.8856 C.3     1  UNL1        0.0862
     39 N         143.1234  138.6598  159.7410 N.3     1  UNL1       -0.2951
     40 C         143.0426  137.7415  160.9243 C.3     1  UNL1        0.0862
     41 C         143.5858  138.1794  162.2521 C.3     1  UNL1        0.0894
     42 H         143.6528  138.1671  159.0216 H       1  UNL1        0.1233
@<TRIPOS>BOND
     1    29    30    1
     2    30    28    1
     3    28    27    1
     4    27    26    1
     5    26    15    1
     6    15    14    1
     7    14     1    1
     8     1     2   ar
     9     2     3   ar
    10     3     4   ar
    11     4     5   ar
    12     5     6   ar
    13     6     7   ar
    14     7     8   ar
    15     8     9   ar
    16     9    10   ar
    17    10    11   ar
    18    11    12   ar
    19    12    33    1
    20    33    34    1
    21    34    35    1
    22    35    36    1
    23    36    37    1
    24    37    38    1
    25    38    39    1
    26    39    40    1
    27    40    41    1
    28    12    13   ar
    29    16    15    1
    30    16    17    1
    31    17    18    1
    32    18    19    1
    33    19    20    1
    34    20    21   ar
    35    21    22   ar
    36    22    23   ar
    37    23    24   ar
    38    24    25   ar
    39    13     1   ar
    40    25    16    1
    41    13     5   ar
    42    25    20   ar
    43    11     6   ar
    44    41    36    1
    45    29    31    1
    46    29    32    1
    47    39    42    1
@<TRIPOS>MOLECULE
*****
 42 47 0 0 0
SMALL
GASTEIGER

@<TRIPOS>ATOM
      1 C         142.0304  139.5111  162.6709 C.ar    1  UNL1        0.0909
      2 N         141.5450  138.7981  161.4438 N.ar    1  UNL1       -0.2453
      3 C         140.2422  138.0553  161.4740 C.ar    1  UNL1        0.0986
      4 C         139.4248  138.0255  162.7314 C.ar    1  UNL1        0.0221
      5 C         139.9103  138.7384  163.9586 C.ar    1  UNL1        0.0199
      6 C         139.3254  138.8840  165.3322 C.ar    1  UNL1        0.0173
      7 C         138.0573  138.3658  165.9432 C.ar    1  UNL1        0.0015
      8 C         137.7306  138.6805  167.3729 C.ar    1  UNL1        0.0001
      9 C         138.6719  139.5133  168.1917 C.ar    1  UNL1        0.0015
     10 C         139.9400  140.0314  167.5806 C.ar    1  UNL1        0.0172
     11 C         140.2668  139.7168  166.1509 C.ar    1  UNL1        0.0599
     12 N         141.4334  140.0859  165.2833 N.ar    1  UNL1       -0.3262
     13 C         141.2131  139.4812  163.9283 C.ar    1  UNL1        0.0750
     14 C         143.3332  140.2539  162.6407 C.3     1  UNL1        0.1204
     15 N         143.4353  141.5596  161.9096 N.3     1  UNL1       -0.2640
     16 C         143.0266  142.8332  162.5884 C.3     1  UNL1        0.0981
     17 C         144.0611  143.6987  163.2446 C.3     1  UNL1        0.0224
     18 C         143.6523  144.9723  163.9234 C.3     1  UNL1        0.0065
     19 C         142.2091  145.3804  163.9461 C.3     1  UNL1        0.0277
     20 C         141.1746  144.5149  163.2899 C.ar    1  UNL1       -0.0073
     21 C         139.7314  144.9230  163.3126 C.ar    1  UNL1       -0.0015
     22 C         138.6968  144.0574  162.6565 C.ar    1  UNL1        0.0203
     23 C         139.1055  142.7837  161.9776 C.ar    1  UNL1        0.0985
     24 N         140.5488  142.3757  161.9549 N.ar    1  UNL1       -0.2471
     25 C         141.5833  143.2413  162.6111 C.ar    1  UNL1        0.0695
     26 C         143.9461  141.5917  160.4995 C.3     1  UNL1        0.0728
     27 C         143.0119  141.3229  159.3571 C.3     1  UNL1        0.0188
     28 C         142.1247  142.4165  158.8406 C.3     1  UNL1        0.0183
     29 N         142.9303  144.6875  157.8693 N.3     1  UNL1       -0.3211
     30 C         142.5092  143.8524  159.0420 C.3     1  UNL1        0.0652
     31 H         143.1546  145.6306  158.1866 H       1  UNL1        0.1189
     32 H         142.1699  144.7288  157.1908 H       1  UNL1        0.1189
     33 C         142.6132  140.9143  165.6978 C.3     1  UNL1        0.1075
     34 C         142.4013  142.2263  166.3931 C.3     1  UNL1        0.0418
     35 C         143.0170  142.4700  167.7390 C.3     1  UNL1        0.0742
     36 N         142.2188  142.2231  168.9848 N.3     1  UNL1       -0.2703
     37 C         142.6356  141.1456  169.9414 C.3     1  UNL1        0.0894
     38 C         141.8374  140.8988  171.1872 C.3     1  UNL1        0.0862
     39 N         140.6223  141.7295  171.4763 N.3     1  UNL1       -0.2951
     40 C         140.2056  142.8070  170.5197 C.3     1  UNL1        0.0862
     41 C         141.0038  143.0539  169.2739 C.3     1  UNL1        0.0894
     42 H         140.7817  142.1809  172.3770 H       1  UNL1        0.1233
@<TRIPOS>BOND
     1    29    30    1
     2    30    28    1
     3    28    27    1
     4    27    26    1
     5    26    15    1
     6    15    14    1
     7    14     1    1
     8     1     2   ar
     9     2     3   ar
    10     3     4   ar
    11     4     5   ar
    12     5     6   ar
    13     6     7   ar
    14     7     8   ar
    15     8     9   ar
    16     9    10   ar
    17    10    11   ar
    18    11    12   ar
    19    12    33    1
    20    33    34    1
    21    34    35    1
    22    35    36    1
    23    36    37    1
    24    37    38    1
    25    38    39    1
    26    39    40    1
    27    40    41    1
    28    12    13   ar
    29    16    15    1
    30    16    17    1
    31    17    18    1
    32    18    19    1
    33    19    20    1
    34    20    21   ar
    35    21    22   ar
    36    22    23   ar
    37    23    24   ar
    38    24    25   ar
    39    13     1   ar
    40    25    16    1
    41    13     5   ar
    42    25    20   ar
    43    11     6   ar
    44    41    36    1
    45    29    31    1
    46    29    32    1
    47    39    42    1
@<TRIPOS>MOLECULE
*****
 42 47 0 0 0
SMALL
GASTEIGER

@<TRIPOS>ATOM
      1 C         140.9310  141.8030  163.4587 C.ar    1  UNL1        0.0909
      2 N         141.6688  142.8765  162.7149 N.ar    1  UNL1       -0.2453
      3 C         142.7284  143.6784  163.4109 C.ar    1  UNL1        0.0986
      4 C         143.0502  143.4067  164.8506 C.ar    1  UNL1        0.0221
      5 C         142.3123  142.3332  165.5943 C.ar    1  UNL1        0.0199
      6 C         142.4113  141.8423  167.0083 C.ar    1  UNL1        0.0173
      7 C         143.2816  142.2589  168.1567 C.ar    1  UNL1        0.0015
      8 C         143.1534  141.5704  169.4831 C.ar    1  UNL1        0.0001
      9 C         142.1550  140.4652  169.6611 C.ar    1  UNL1        0.0015
     10 C         141.2847  140.0485  168.5126 C.ar    1  UNL1        0.0172
     11 C         141.4129  140.7371  167.1862 C.ar    1  UNL1        0.0599
     12 N         140.6969  140.5449  165.8822 N.ar    1  UNL1       -0.3262
     13 C         141.2528  141.5313  164.8984 C.ar    1  UNL1        0.0750
     14 C         139.8714  141.0012  162.7627 C.3     1  UNL1        0.1204
     15 N         138.7752  141.6979  162.0127 N.3     1  UNL1       -0.2640
     16 C         138.8321  141.7917  160.5167 C.3     1  UNL1        0.0981
     17 C         138.4047  140.6259  159.6753 C.3     1  UNL1        0.0224
     18 C         138.4617  140.7197  158.1793 C.3     1  UNL1        0.0065
     19 C         138.9461  141.9794  157.5247 C.3     1  UNL1        0.0277
     20 C         139.3735  143.1452  158.3661 C.ar    1  UNL1       -0.0073
     21 C         139.8580  144.4049  157.7115 C.ar    1  UNL1       -0.0015
     22 C         140.2855  145.5709  158.5529 C.ar    1  UNL1        0.0203
     23 C         140.2285  145.4771  160.0490 C.ar    1  UNL1        0.0985
     24 N         139.7441  144.2174  160.7036 N.ar    1  UNL1       -0.2471
     25 C         139.3166  143.0514  159.8621 C.ar    1  UNL1        0.0695
     26 C         137.6218  142.3009  162.7586 C.3     1  UNL1        0.0728
     27 C         137.7677  142.6501  164.2101 C.3     1  UNL1        0.0188
     28 C         137.8684  144.0868  164.6294 C.3     1  UNL1        0.0183
     29 N         139.8605  145.4532  163.6734 N.3     1  UNL1       -0.3211
     30 C         139.2149  144.7220  164.8128 C.3     1  UNL1        0.0652
     31 H         140.7646  145.8185  163.9726 H       1  UNL1        0.1189
     32 H         139.2613  146.2255  163.3819 H       1  UNL1        0.1189
     33 C         139.6149  139.5423  165.6099 C.3     1  UNL1        0.1075
     34 C         139.9356  138.2727  164.8785 C.3     1  UNL1        0.0418
     35 C         141.3161  137.6911  164.9553 C.3     1  UNL1        0.0742
     36 N         142.4096  138.2373  164.0858 N.3     1  UNL1       -0.2703
     37 C         142.3113  138.1186  162.5937 C.3     1  UNL1        0.0894
     38 C         143.4047  138.6648  161.7242 C.3     1  UNL1        0.0862
     39 N         144.5965  139.3297  162.3468 N.3     1  UNL1       -0.2951
     40 C         144.6948  139.4483  163.8388 C.3     1  UNL1        0.0862
     41 C         143.6014  138.9022  164.7083 C.3     1  UNL1        0.0894
     42 H         144.6334  140.2780  161.9729 H       1  UNL1        0.1233
@<TRIPOS>BOND
     1    29    30    1
     2    30    28    1
     3    28    27    1
     4    27    26    1
     5    26    15    1
     6    15    14    1
     7    14     1    1
     8     1     2   ar
     9     2     3   ar
    10     3     4   ar
    11     4     5   ar
    12     5     6   ar
    13     6     7   ar
    14     7     8   ar
    15     8     9   ar
    16     9    10   ar
    17    10    11   ar
    18    11    12   ar
    19    12    33    1
    20    33    34    1
    21    34    35    1
    22    35    36    1
    23    36    37    1
    24    37    38    1
    25    38    39    1
    26    39    40    1
    27    40    41    1
    28    12    13   ar
    29    16    15    1
    30    16    17    1
    31    17    18    1
    32    18    19    1
    33    19    20    1
    34    20    21   ar
    35    21    22   ar
    36    22    23   ar
    37    23    24   ar
    38    24    25   ar
    39    13     1   ar
    40    25    16    1
    41    13     5   ar
    42    25    20   ar
    43    11     6   ar
    44    41    36    1
    45    29    31    1
    46    29    32    1
    47    39    42    1
@<TRIPOS>MOLECULE
*****
 42 47 0 0 0
SMALL
GASTEIGER

@<TRIPOS>ATOM
      1 C         142.0028  140.8502  163.4389 C.ar    1  UNL1        0.0909
      2 N         143.0524  140.0291  162.7504 N.ar    1  UNL1       -0.2453
      3 C         143.8883  139.0657  163.5398 C.ar    1  UNL1        0.0986
      4 C         143.6746  138.9234  165.0177 C.ar    1  UNL1        0.0221
      5 C         142.6249  139.7444  165.7061 C.ar    1  UNL1        0.0199
      6 C         142.1894  139.8194  167.1396 C.ar    1  UNL1        0.0173
      7 C         142.6564  139.0986  168.3694 C.ar    1  UNL1        0.0015
      8 C         142.0183  139.3876  169.6958 C.ar    1  UNL1        0.0001
      9 C         140.9133  140.3974  169.7923 C.ar    1  UNL1        0.0015
     10 C         140.4463  141.1181  168.5625 C.ar    1  UNL1        0.0172
     11 C         141.0844  140.8291  167.2362 C.ar    1  UNL1        0.0599
     12 N         140.8369  141.3782  165.8624 N.ar    1  UNL1       -0.3262
     13 C         141.7890  140.7078  164.9168 C.ar    1  UNL1        0.0750
     14 C         141.1669  141.8136  162.6495 C.3     1  UNL1        0.1204
     15 N         141.6760  143.1973  162.3740 N.3     1  UNL1       -0.2640
     16 C         141.5213  143.7950  161.0070 C.3     1  UNL1        0.0981
     17 C         140.4430  144.8048  160.7477 C.3     1  UNL1        0.0224
     18 C         140.2883  145.4026  159.3806 C.3     1  UNL1        0.0065
     19 C         141.2120  144.9905  158.2730 C.3     1  UNL1        0.0277
     20 C         142.2904  143.9807  158.5324 C.ar    1  UNL1       -0.0073
     21 C         143.2141  143.5687  157.4247 C.ar    1  UNL1       -0.0015
     22 C         144.2925  142.5588  157.6840 C.ar    1  UNL1        0.0203
     23 C         144.4473  141.9610  159.0511 C.ar    1  UNL1        0.0985
     24 N         143.5235  142.3731  160.1588 N.ar    1  UNL1       -0.2471
     25 C         142.4451  143.3830  159.8994 C.ar    1  UNL1        0.0695
     26 C         142.3398  143.9833  163.4657 C.3     1  UNL1        0.0728
     27 C         143.8366  144.0491  163.5387 C.3     1  UNL1        0.0188
     28 C         144.5810  143.1585  164.4888 C.3     1  UNL1        0.0183
     29 N         145.7320  141.9750  162.4828 N.3     1  UNL1       -0.3211
     30 C         145.5639  142.1551  163.9623 C.3     1  UNL1        0.0652
     31 H         146.4354  141.2580  162.3053 H       1  UNL1        0.1189
     32 H         146.0314  142.8559  162.0649 H       1  UNL1        0.1189
     33 C         139.8165  142.4155  165.4982 C.3     1  UNL1        0.1075
     34 C         138.5015  141.9996  164.9086 C.3     1  UNL1        0.0418
     35 C         138.0817  140.5602  164.9522 C.3     1  UNL1        0.0742
     36 N         138.3749  139.6579  163.7903 N.3     1  UNL1       -0.2703
     37 C         137.8245  139.9804  162.4327 C.3     1  UNL1        0.0894
     38 C         138.1177  139.0782  161.2708 C.3     1  UNL1        0.0862
     39 N         138.9612  137.8534  161.4665 N.3     1  UNL1       -0.2951
     40 C         139.5116  137.5309  162.8240 C.3     1  UNL1        0.0862
     41 C         139.2185  138.4331  163.9859 C.3     1  UNL1        0.0894
     42 H         139.7600  137.9426  160.8385 H       1  UNL1        0.1233
@<TRIPOS>BOND
     1    29    30    1
     2    30    28    1
     3    28    27    1
     4    27    26    1
     5    26    15    1
     6    15    14    1
     7    14     1    1
     8     1     2   ar
     9     2     3   ar
    10     3     4   ar
    11     4     5   ar
    12     5     6   ar
    13     6     7   ar
    14     7     8   ar
    15     8     9   ar
    16     9    10   ar
    17    10    11   ar
    18    11    12   ar
    19    12    33    1
    20    33    34    1
    21    34    35    1
    22    35    36    1
    23    36    37    1
    24    37    38    1
    25    38    39    1
    26    39    40    1
    27    40    41    1
    28    12    13   ar
    29    16    15    1
    30    16    17    1
    31    17    18    1
    32    18    19    1
    33    19    20    1
    34    20    21   ar
    35    21    22   ar
    36    22    23   ar
    37    23    24   ar
    38    24    25   ar
    39    13     1   ar
    40    25    16    1
    41    13     5   ar
    42    25    20   ar
    43    11     6   ar
    44    41    36    1
    45    29    31    1
    46    29    32    1
    47    39    42    1
@<TRIPOS>MOLECULE
*****
 42 47 0 0 0
SMALL
GASTEIGER

@<TRIPOS>ATOM
      1 C         138.8340  142.8593  161.5850 C.ar    1  UNL1        0.0909
      2 N         138.2758  144.1477  162.1126 N.ar    1  UNL1       -0.2453
      3 C         137.7146  144.2086  163.5023 C.ar    1  UNL1        0.0986
      4 C         137.7116  142.9811  164.3644 C.ar    1  UNL1        0.0221
      5 C         138.2699  141.6927  163.8369 C.ar    1  UNL1        0.0199
      6 C         138.4013  140.3301  164.4500 C.ar    1  UNL1        0.0173
      7 C         138.0190  139.7949  165.7981 C.ar    1  UNL1        0.0015
      8 C         138.2792  138.3567  166.1355 C.ar    1  UNL1        0.0001
      9 C         138.9216  137.4536  165.1247 C.ar    1  UNL1        0.0015
     10 C         139.3039  137.9888  163.7766 C.ar    1  UNL1        0.0172
     11 C         139.0438  139.4270  163.4392 C.ar    1  UNL1        0.0599
     12 N         139.3093  140.2315  162.2014 N.ar    1  UNL1       -0.3262
     13 C         138.8311  141.6318  162.4471 C.ar    1  UNL1        0.0750
     14 C         139.3952  142.7984  160.1953 C.3     1  UNL1        0.1204
     15 N         140.5094  143.7195  159.7954 N.3     1  UNL1       -0.2640
     16 C         141.9308  143.3583  160.1105 C.3     1  UNL1        0.0981
     17 C         142.7431  142.5769  159.1209 C.3     1  UNL1        0.0224
     18 C         144.1644  142.2158  159.4359 C.3     1  UNL1        0.0065
     19 C         144.7735  142.6361  160.7407 C.3     1  UNL1        0.0277
     20 C         143.9612  143.4175  161.7303 C.ar    1  UNL1       -0.0073
     21 C         144.5702  143.8378  163.0351 C.ar    1  UNL1       -0.0015
     22 C         143.7579  144.6192  164.0248 C.ar    1  UNL1        0.0203
     23 C         142.3365  144.9804  163.7097 C.ar    1  UNL1        0.0985
     24 N         141.7274  144.5601  162.4049 N.ar    1  UNL1       -0.2471
     25 C         142.5398  143.7786  161.4152 C.ar    1  UNL1        0.0695
     26 C         140.2022  145.0019  159.0803 C.3     1  UNL1        0.0728
     27 C         139.9402  144.9928  157.6034 C.3     1  UNL1        0.0188
     28 C         140.2097  146.2215  156.7863 C.3     1  UNL1        0.0183
     29 N         138.6051  148.0876  155.9538 N.3     1  UNL1       -0.3211
     30 C         139.1837  146.7115  155.8078 C.3     1  UNL1        0.0652
     31 H         137.9286  148.2529  155.2085 H       1  UNL1        0.1189
     32 H         139.3527  148.7789  155.8939 H       1  UNL1        0.1189
     33 C         139.9422  139.7246  160.9394 C.3     1  UNL1        0.1075
     34 C         141.3435  139.1905  160.9651 C.3     1  UNL1        0.0418
     35 C         142.4154  139.9322  161.7074 C.3     1  UNL1        0.0742
     36 N         142.4929  139.8405  163.2026 N.3     1  UNL1       -0.2703
     37 C         142.8158  138.5306  163.8580 C.3     1  UNL1        0.0894
     38 C         142.8933  138.4390  165.3532 C.3     1  UNL1        0.0862
     39 N         142.6479  139.6574  166.1930 N.3     1  UNL1       -0.2951
     40 C         142.3251  140.9674  165.5376 C.3     1  UNL1        0.0862
     41 C         142.2476  141.0590  164.0424 C.3     1  UNL1        0.0894
     42 H         143.4899  139.8061  166.7493 H       1  UNL1        0.1233
@<TRIPOS>BOND
     1    29    30    1
     2    30    28    1
     3    28    27    1
     4    27    26    1
     5    26    15    1
     6    15    14    1
     7    14     1    1
     8     1     2   ar
     9     2     3   ar
    10     3     4   ar
    11     4     5   ar
    12     5     6   ar
    13     6     7   ar
    14     7     8   ar
    15     8     9   ar
    16     9    10   ar
    17    10    11   ar
    18    11    12   ar
    19    12    33    1
    20    33    34    1
    21    34    35    1
    22    35    36    1
    23    36    37    1
    24    37    38    1
    25    38    39    1
    26    39    40    1
    27    40    41    1
    28    12    13   ar
    29    16    15    1
    30    16    17    1
    31    17    18    1
    32    18    19    1
    33    19    20    1
    34    20    21   ar
    35    21    22   ar
    36    22    23   ar
    37    23    24   ar
    38    24    25   ar
    39    13     1   ar
    40    25    16    1
    41    13     5   ar
    42    25    20   ar
    43    11     6   ar
    44    41    36    1
    45    29    31    1
    46    29    32    1
    47    39    42    1
@<TRIPOS>MOLECULE
*****
 42 47 0 0 0
SMALL
GASTEIGER

@<TRIPOS>ATOM
      1 C         141.3675  140.8678  163.9436 C.ar    1  UNL1        0.0909
      2 N         142.5104  140.0126  163.4829 N.ar    1  UNL1       -0.2453
      3 C         143.6488  139.7172  164.4139 C.ar    1  UNL1        0.0986
      4 C         143.6444  140.2770  165.8055 C.ar    1  UNL1        0.0221
      5 C         142.5014  141.1322  166.2662 C.ar    1  UNL1        0.0199
      6 C         142.2232  141.8179  167.5710 C.ar    1  UNL1        0.0173
      7 C         142.9938  141.8803  168.8564 C.ar    1  UNL1        0.0015
      8 C         142.4540  142.6619  170.0172 C.ar    1  UNL1        0.0001
      9 C         141.1436  143.3811  169.8927 C.ar    1  UNL1        0.0015
     10 C         140.3730  143.3187  168.6073 C.ar    1  UNL1        0.0172
     11 C         140.9128  142.5371  167.4464 C.ar    1  UNL1        0.0599
     12 N         140.3812  142.2959  166.0647 N.ar    1  UNL1       -0.3262
     13 C         141.3630  141.4276  165.3353 C.ar    1  UNL1        0.0750
     14 C         140.2290  141.1632  163.0127 C.3     1  UNL1        0.1204
     15 N         139.4595  140.0374  162.3881 N.3     1  UNL1       -0.2640
     16 C         139.3236  139.9586  160.8964 C.3     1  UNL1        0.0981
     17 C         138.1442  140.5882  160.2164 C.3     1  UNL1        0.0224
     18 C         138.0083  140.5094  158.7247 C.3     1  UNL1        0.0065
     19 C         139.0520  139.8009  157.9129 C.3     1  UNL1        0.0277
     20 C         140.2313  139.1713  158.5929 C.ar    1  UNL1       -0.0073
     21 C         141.2750  138.4628  157.7811 C.ar    1  UNL1       -0.0015
     22 C         142.4544  137.8331  158.4611 C.ar    1  UNL1        0.0203
     23 C         142.5903  137.9119  159.9529 C.ar    1  UNL1        0.0985
     24 N         141.5467  138.6204  160.7647 N.ar    1  UNL1       -0.2471
     25 C         140.3672  139.2501  160.0846 C.ar    1  UNL1        0.0695
     26 C         138.8257  138.9903  163.2554 C.3     1  UNL1        0.0728
     27 C         138.2454  139.3690  164.5858 C.3     1  UNL1        0.0188
     28 C         138.6590  138.6282  165.8227 C.3     1  UNL1        0.0183
     29 N         136.9018  137.4675  167.3441 N.3     1  UNL1       -0.3211
     30 C         137.7784  138.6452  167.0369 C.3     1  UNL1        0.0652
     31 H         136.3757  137.6490  168.1989 H       1  UNL1        0.1189
     32 H         137.4802  136.6369  167.4708 H       1  UNL1        0.1189
     33 C         139.0937  142.8294  165.5099 C.3     1  UNL1        0.1075
     34 C         138.9491  144.2953  165.2271 C.3     1  UNL1        0.0418
     35 C         139.0120  144.7965  163.8147 C.3     1  UNL1        0.0742
     36 N         140.3130  144.7752  163.0685 N.3     1  UNL1       -0.2703
     37 C         140.3183  144.6538  161.5735 C.3     1  UNL1        0.0894
     38 C         141.6193  144.6324  160.8273 C.3     1  UNL1        0.0862
     39 N         142.9151  144.7324  161.5761 N.3     1  UNL1       -0.2951
     40 C         142.9099  144.8538  163.0712 C.3     1  UNL1        0.0862
     41 C         141.6088  144.8752  163.8174 C.3     1  UNL1        0.0894
     42 H         143.4009  145.5537  161.2157 H       1  UNL1        0.1233
@<TRIPOS>BOND
     1    29    30    1
     2    30    28    1
     3    28    27    1
     4    27    26    1
     5    26    15    1
     6    15    14    1
     7    14     1    1
     8     1     2   ar
     9     2     3   ar
    10     3     4   ar
    11     4     5   ar
    12     5     6   ar
    13     6     7   ar
    14     7     8   ar
    15     8     9   ar
    16     9    10   ar
    17    10    11   ar
    18    11    12   ar
    19    12    33    1
    20    33    34    1
    21    34    35    1
    22    35    36    1
    23    36    37    1
    24    37    38    1
    25    38    39    1
    26    39    40    1
    27    40    41    1
    28    12    13   ar
    29    16    15    1
    30    16    17    1
    31    17    18    1
    32    18    19    1
    33    19    20    1
    34    20    21   ar
    35    21    22   ar
    36    22    23   ar
    37    23    24   ar
    38    24    25   ar
    39    13     1   ar
    40    25    16    1
    41    13     5   ar
    42    25    20   ar
    43    11     6   ar
    44    41    36    1
    45    29    31    1
    46    29    32    1
    47    39    42    1
@<TRIPOS>MOLECULE
*****
 42 47 0 0 0
SMALL
GASTEIGER

@<TRIPOS>ATOM
      1 C         139.8104  141.1548  166.5173 C.ar    1  UNL1        0.0909
      2 N         139.2985  140.0869  167.4379 N.ar    1  UNL1       -0.2453
      3 C         138.4319  138.9864  166.9015 C.ar    1  UNL1        0.0986
      4 C         138.0770  138.9537  165.4444 C.ar    1  UNL1        0.0221
      5 C         138.5889  140.0216  164.5238 C.ar    1  UNL1        0.0199
      6 C         138.4072  140.2499  163.0524 C.ar    1  UNL1        0.0173
      7 C         137.6524  139.4876  162.0041 C.ar    1  UNL1        0.0015
      8 C         137.6520  139.9670  160.5828 C.ar    1  UNL1        0.0001
      9 C         138.4064  141.2087  160.2098 C.ar    1  UNL1        0.0015
     10 C         139.1612  141.9710  161.2581 C.ar    1  UNL1        0.0172
     11 C         139.1617  141.4916  162.6794 C.ar    1  UNL1        0.0599
     12 N         139.8095  142.0306  163.9203 N.ar    1  UNL1       -0.3262
     13 C         139.4555  141.1221  165.0602 C.ar    1  UNL1        0.0750
     14 C         140.6770  142.2553  167.0537 C.3     1  UNL1        0.1204
     15 N         142.1230  141.9926  167.3536 N.3     1  UNL1       -0.2640
     16 C         143.1475  142.1057  166.2639 C.3     1  UNL1        0.0981
     17 C         143.9483  143.3652  166.1151 C.3     1  UNL1        0.0224
     18 C         144.9729  143.4783  165.0254 C.3     1  UNL1        0.0065
     19 C         145.1967  142.3318  164.0845 C.3     1  UNL1        0.0277
     20 C         144.3959  141.0722  164.2333 C.ar    1  UNL1       -0.0073
     21 C         144.6197  139.9257  163.2923 C.ar    1  UNL1       -0.0015
     22 C         143.8190  138.6661  163.4410 C.ar    1  UNL1        0.0203
     23 C         142.7943  138.5529  164.5308 C.ar    1  UNL1        0.0985
     24 N         142.5705  139.6995  165.4717 N.ar    1  UNL1       -0.2471
     25 C         143.3713  140.9592  165.3229 C.ar    1  UNL1        0.0695
     26 C         142.5444  141.6169  168.7433 C.3     1  UNL1        0.0728
     27 C         142.7344  140.1735  169.1050 C.3     1  UNL1        0.0188
     28 C         141.7427  139.4870  169.9968 C.3     1  UNL1        0.0183
     29 N         139.2554  140.0314  170.5128 N.3     1  UNL1       -0.3211
     30 C         140.7155  140.2922  170.7360 C.3     1  UNL1        0.0652
     31 H         138.7044  140.6649  171.0920 H       1  UNL1        0.1189
     32 H         139.0400  139.0666  170.7644 H       1  UNL1        0.1189
     33 C         140.6618  143.2620  164.0062 C.3     1  UNL1        0.1075
     34 C         141.7881  143.4638  163.0364 C.3     1  UNL1        0.0418
     35 C         141.7558  144.6179  162.0788 C.3     1  UNL1        0.0742
     36 N         142.0933  144.4027  160.6332 N.3     1  UNL1       -0.2703
     37 C         141.4250  145.2302  159.5757 C.3     1  UNL1        0.0894
     38 C         141.7626  145.0150  158.1301 C.3     1  UNL1        0.0862
     39 N         142.7686  143.9722  157.7420 N.3     1  UNL1       -0.2951
     40 C         143.4369  143.1447  158.7996 C.3     1  UNL1        0.0862
     41 C         143.0993  143.3599  160.2452 C.3     1  UNL1        0.0894
     42 H         143.5097  144.4533  157.2324 H       1  UNL1        0.1233
@<TRIPOS>BOND
     1    29    30    1
     2    30    28    1
     3    28    27    1
     4    27    26    1
     5    26    15    1
     6    15    14    1
     7    14     1    1
     8     1     2   ar
     9     2     3   ar
    10     3     4   ar
    11     4     5   ar
    12     5     6   ar
    13     6     7   ar
    14     7     8   ar
    15     8     9   ar
    16     9    10   ar
    17    10    11   ar
    18    11    12   ar
    19    12    33    1
    20    33    34    1
    21    34    35    1
    22    35    36    1
    23    36    37    1
    24    37    38    1
    25    38    39    1
    26    39    40    1
    27    40    41    1
    28    12    13   ar
    29    16    15    1
    30    16    17    1
    31    17    18    1
    32    18    19    1
    33    19    20    1
    34    20    21   ar
    35    21    22   ar
    36    22    23   ar
    37    23    24   ar
    38    24    25   ar
    39    13     1   ar
    40    25    16    1
    41    13     5   ar
    42    25    20   ar
    43    11     6   ar
    44    41    36    1
    45    29    31    1
    46    29    32    1
    47    39    42    1
