@<TRIPOS>MOLECULE
*****
 33 37 0 0 0
SMALL
GASTEIGER

@<TRIPOS>ATOM
      1 C         141.2149  138.9980  161.3078 C.ar    1  UNL1        0.0790
      2 C         140.5584  138.5136  160.0492 C.ar    1  UNL1        0.0365
      3 C         141.5400  138.6674  158.9254 C.ar    1  UNL1        0.0962
      4 N         142.8033  139.2470  159.4896 N.ar    1  UNL1       -0.1723
      5 N         142.6024  139.4513  160.9620 N.ar    1  UNL1       -0.2531
      6 C         139.3498  139.0777  165.4023 C.ar    1  UNL1       -0.0225
      7 C         139.6355  137.7657  164.7337 C.ar    1  UNL1       -0.0042
      8 C         140.2572  137.7392  163.3689 C.ar    1  UNL1        0.0012
      9 C         140.5932  139.0246  162.6727 C.ar    1  UNL1        0.0173
     10 C         140.3075  140.3365  163.3413 C.ar    1  UNL1        0.0012
     11 C         139.6858  140.3631  164.7061 C.ar    1  UNL1       -0.0042
     12 C         139.3358  139.9431  167.8519 C.3     1  UNL1        0.0047
     13 C         138.7281  139.1042  166.7671 C.3     1  UNL1        0.0224
     14 C         137.4986  138.2918  167.0472 C.3     1  UNL1        0.0047
     15 C         143.6117  140.0106  161.9203 C.3     1  UNL1        0.1052
     16 C         144.0380  139.2080  163.1138 C.3     1  UNL1        0.0244
     17 C         145.0473  139.7674  164.0721 C.3     1  UNL1        0.0020
     18 C         145.6304  141.1293  163.8370 C.3     1  UNL1        0.0001
     19 C         145.2042  141.9318  162.6436 C.3     1  UNL1        0.0020
     20 C         144.1948  141.3724  161.6853 C.3     1  UNL1        0.0244
     21 C         141.3005  138.3053  157.4897 C.3     1  UNL1        0.1206
     22 N         141.7845  136.9892  156.9573 N.3     1  UNL1       -0.2646
     23 C         141.1031  136.3608  155.7780 C.3     1  UNL1        0.0941
     24 C         141.5871  135.0447  155.2456 C.3     1  UNL1        0.1095
     25 N         142.7525  134.3568  155.8927 N.pl3   1  UNL1       -0.2904
     26 C         143.4339  134.9850  157.0720 C.3     1  UNL1        0.1095
     27 C         142.9499  136.3013  157.6044 C.3     1  UNL1        0.0941
     28 C         143.2365  133.0406  155.3604 C.ar    1  UNL1        0.1318
     29 C         144.2354  132.2378  156.1401 C.ar    1  UNL1        0.0343
     30 C         144.7194  130.9216  155.6079 C.ar    1  UNL1        0.0045
     31 C         144.2047  130.4082  154.2959 C.ar    1  UNL1        0.0208
     32 C         143.2059  131.2109  153.5162 C.ar    1  UNL1        0.1003
     33 N         142.7218  132.5271  154.0484 N.ar    1  UNL1       -0.2292
@<TRIPOS>BOND
     1    12    13    1
     2    13    14    1
     3    13     6    1
     4     6     7   ar
     5     7     8   ar
     6     8     9   ar
     7     9     1    1
     8     1     2   ar
     9     2     3   ar
    10     3    21    1
    11    21    22    1
    12    22    23    1
    13    23    24    1
    14    24    25    1
    15    25    28    1
    16    28    29   ar
    17    29    30   ar
    18    30    31   ar
    19    31    32   ar
    20    32    33   ar
    21    25    26    1
    22    26    27    1
    23     3     4   ar
    24     4     5   ar
    25     5    15    1
    26    15    16    1
    27    16    17    1
    28    17    18    1
    29    18    19    1
    30    19    20    1
    31     9    10   ar
    32    10    11   ar
    33    11     6   ar
    34     5     1   ar
    35    20    15    1
    36    27    22    1
    37    33    28   ar
@<TRIPOS>MOLECULE
*****
 33 37 0 0 0
SMALL
GASTEIGER

@<TRIPOS>ATOM
      1 C         141.9875  138.6292  160.9383 C.ar    1  UNL1        0.0790
      2 C         141.5940  138.0393  159.6166 C.ar    1  UNL1        0.0365
      3 C         142.6912  138.3273  158.6352 C.ar    1  UNL1        0.0962
      4 N         143.7630  139.0953  159.3505 N.ar    1  UNL1       -0.1723
      5 N         143.3280  139.2819  160.7739 N.ar    1  UNL1       -0.2531
      6 C         139.5710  138.4692  164.7310 C.ar    1  UNL1       -0.0225
      7 C         140.5454  137.3733  164.4158 C.ar    1  UNL1       -0.0042
      8 C         141.3509  137.4266  163.1516 C.ar    1  UNL1        0.0012
      9 C         141.1820  138.5759  162.2026 C.ar    1  UNL1        0.0173
     10 C         140.2076  139.6718  162.5178 C.ar    1  UNL1        0.0012
     11 C         139.4021  139.6184  163.7821 C.ar    1  UNL1       -0.0042
     12 C         138.8392  139.5451  166.9798 C.3     1  UNL1        0.0047
     13 C         138.7655  138.4158  165.9953 C.3     1  UNL1        0.0224
     14 C         137.8862  137.2332  166.2750 C.3     1  UNL1        0.0047
     15 C         144.0984  139.9958  161.8448 C.3     1  UNL1        0.1052
     16 C         144.5397  141.4138  161.6326 C.3     1  UNL1        0.0244
     17 C         145.3101  142.1277  162.7035 C.3     1  UNL1        0.0020
     18 C         145.6392  141.4238  163.9865 C.3     1  UNL1        0.0001
     19 C         145.1979  140.0060  164.1987 C.3     1  UNL1        0.0020
     20 C         144.4275  139.2920  163.1278 C.3     1  UNL1        0.0244
     21 C         142.7129  137.9191  157.1920 C.3     1  UNL1        0.1206
     22 N         142.5203  136.4796  156.8168 N.3     1  UNL1       -0.2646
     23 C         141.5162  136.1061  155.7670 C.3     1  UNL1        0.0941
     24 C         141.3235  134.6666  155.3918 C.3     1  UNL1        0.1095
     25 N         142.1350  133.6007  156.0665 N.pl3   1  UNL1       -0.2904
     26 C         143.1391  133.9741  157.1163 C.3     1  UNL1        0.1095
     27 C         143.3318  135.4137  157.4916 C.3     1  UNL1        0.0941
     28 C         141.9424  132.1611  155.6914 C.ar    1  UNL1        0.1318
     29 C         140.8893  131.7806  154.6932 C.ar    1  UNL1        0.0343
     30 C         140.6967  130.3411  154.3181 C.ar    1  UNL1        0.0045
     31 C         141.5570  129.2821  154.9410 C.ar    1  UNL1        0.0208
     32 C         142.6101  129.6626  155.9391 C.ar    1  UNL1        0.1003
     33 N         142.8028  131.1021  156.3143 N.ar    1  UNL1       -0.2292
@<TRIPOS>BOND
     1    12    13    1
     2    13    14    1
     3    13     6    1
     4     6     7   ar
     5     7     8   ar
     6     8     9   ar
     7     9     1    1
     8     1     2   ar
     9     2     3   ar
    10     3    21    1
    11    21    22    1
    12    22    23    1
    13    23    24    1
    14    24    25    1
    15    25    28    1
    16    28    29   ar
    17    29    30   ar
    18    30    31   ar
    19    31    32   ar
    20    32    33   ar
    21    25    26    1
    22    26    27    1
    23     3     4   ar
    24     4     5   ar
    25     5    15    1
    26    15    16    1
    27    16    17    1
    28    17    18    1
    29    18    19    1
    30    19    20    1
    31     9    10   ar
    32    10    11   ar
    33    11     6   ar
    34     5     1   ar
    35    20    15    1
    36    27    22    1
    37    33    28   ar
@<TRIPOS>MOLECULE
*****
 33 37 0 0 0
SMALL
GASTEIGER

@<TRIPOS>ATOM
      1 C         142.3486  141.8676  163.9806 C.ar    1  UNL1        0.0790
      2 C         143.1508  142.7211  163.0437 C.ar    1  UNL1        0.0365
      3 C         143.1085  142.0850  161.6858 C.ar    1  UNL1        0.0962
      4 N         142.2802  140.8383  161.7836 N.ar    1  UNL1       -0.1723
      5 N         141.8105  140.7040  163.2018 N.ar    1  UNL1       -0.2531
      6 C         141.6744  142.6588  168.3589 C.ar    1  UNL1       -0.0225
      7 C         143.0248  142.2201  167.8753 C.ar    1  UNL1       -0.0042
      8 C         143.2495  141.9563  166.4158 C.ar    1  UNL1        0.0012
      9 C         142.1238  142.1313  165.4400 C.ar    1  UNL1        0.0173
     10 C         140.7735  142.5701  165.9237 C.ar    1  UNL1        0.0012
     11 C         140.5488  142.8339  167.3831 C.ar    1  UNL1       -0.0042
     12 C         142.6081  142.9035  170.7710 C.3     1  UNL1        0.0047
     13 C         141.4497  142.9226  169.8183 C.3     1  UNL1        0.0224
     14 C         140.0666  143.2054  170.3251 C.3     1  UNL1        0.0047
     15 C         140.9532  139.5998  163.7458 C.3     1  UNL1        0.1052
     16 C         139.4906  139.8334  163.9833 C.3     1  UNL1        0.0244
     17 C         138.6333  138.7293  164.5273 C.3     1  UNL1        0.0020
     18 C         139.2386  137.3914  164.8337 C.3     1  UNL1        0.0001
     19 C         140.7011  137.1578  164.5961 C.3     1  UNL1        0.0020
     20 C         141.5584  138.2620  164.0522 C.3     1  UNL1        0.0244
     21 C         143.7773  142.6045  160.4477 C.3     1  UNL1        0.1206
     22 N         143.0142  143.4718  159.4909 N.3     1  UNL1       -0.2646
     23 C         143.3382  143.4385  158.0266 C.3     1  UNL1        0.0941
     24 C         142.5751  144.3059  157.0698 C.3     1  UNL1        0.1095
     25 N         141.4882  145.2064  157.5773 N.pl3   1  UNL1       -0.2904
     26 C         141.1642  145.2397  159.0414 C.3     1  UNL1        0.1095
     27 C         141.9273  144.3723  159.9983 C.3     1  UNL1        0.0941
     28 C         140.7251  146.0738  156.6204 C.ar    1  UNL1        0.1318
     29 C         141.0817  146.0774  155.1634 C.ar    1  UNL1        0.0343
     30 C         140.3187  146.9447  154.2066 C.ar    1  UNL1        0.0045
     31 C         139.1991  147.8084  154.7067 C.ar    1  UNL1        0.0208
     32 C         138.8424  147.8049  156.1637 C.ar    1  UNL1        0.1003
     33 N         139.6054  146.9375  157.1205 N.ar    1  UNL1       -0.2292
@<TRIPOS>BOND
     1    12    13    1
     2    13    14    1
     3    13     6    1
     4     6     7   ar
     5     7     8   ar
     6     8     9   ar
     7     9     1    1
     8     1     2   ar
     9     2     3   ar
    10     3    21    1
    11    21    22    1
    12    22    23    1
    13    23    24    1
    14    24    25    1
    15    25    28    1
    16    28    29   ar
    17    29    30   ar
    18    30    31   ar
    19    31    32   ar
    20    32    33   ar
    21    25    26    1
    22    26    27    1
    23     3     4   ar
    24     4     5   ar
    25     5    15    1
    26    15    16    1
    27    16    17    1
    28    17    18    1
    29    18    19    1
    30    19    20    1
    31     9    10   ar
    32    10    11   ar
    33    11     6   ar
    34     5     1   ar
    35    20    15    1
    36    27    22    1
    37    33    28   ar
@<TRIPOS>MOLECULE
*****
 33 37 0 0 0
SMALL
GASTEIGER

@<TRIPOS>ATOM
      1 C         142.5897  141.5395  163.8514 C.ar    1  UNL1        0.0790
      2 C         143.6557  141.1216  162.8825 C.ar    1  UNL1        0.0365
      3 C         143.2751  141.6338  161.5250 C.ar    1  UNL1        0.0962
      4 N         141.9738  142.3684  161.6549 N.ar    1  UNL1       -0.1723
      5 N         141.5501  142.3101  163.0927 N.ar    1  UNL1       -0.2531
      6 C         142.5218  140.6395  168.2599 C.ar    1  UNL1       -0.0225
      7 C         142.9675  141.9877  167.7764 C.ar    1  UNL1       -0.0042
      8 C         142.9901  142.2877  166.3069 C.ar    1  UNL1        0.0012
      9 C         142.5671  141.2395  165.3209 C.ar    1  UNL1        0.0173
     10 C         142.1214  139.8913  165.8044 C.ar    1  UNL1        0.0012
     11 C         142.0988  139.5914  167.2739 C.ar    1  UNL1       -0.0042
     12 C         142.3270  141.4530  170.7197 C.3     1  UNL1        0.0047
     13 C         142.4992  140.3395  169.7295 C.3     1  UNL1        0.0224
     14 C         142.6489  138.9261  170.2088 C.3     1  UNL1        0.0047
     15 C         140.3055  142.9160  163.6704 C.3     1  UNL1        0.1052
     16 C         138.9994  142.1848  163.5709 C.3     1  UNL1        0.0244
     17 C         137.7548  142.7907  164.1485 C.3     1  UNL1        0.0020
     18 C         137.8161  144.1278  164.8257 C.3     1  UNL1        0.0001
     19 C         139.1220  144.8589  164.9251 C.3     1  UNL1        0.0020
     20 C         140.3667  144.2530  164.3475 C.3     1  UNL1        0.0244
     21 C         144.0583  141.4448  160.2598 C.3     1  UNL1        0.1206
     22 N         143.6902  140.3464  159.3069 N.3     1  UNL1       -0.2646
     23 C         143.8166  140.5628  157.8280 C.3     1  UNL1        0.0941
     24 C         143.4484  139.4645  156.8751 C.3     1  UNL1        0.1095
     25 N         142.9538  138.1497  157.4011 N.pl3   1  UNL1       -0.2904
     26 C         142.8274  137.9332  158.8799 C.3     1  UNL1        0.1095
     27 C         143.1956  139.0316  159.8329 C.3     1  UNL1        0.0941
     28 C         142.5856  137.0513  156.4482 C.ar    1  UNL1        0.1318
     29 C         143.6540  136.1740  155.8660 C.ar    1  UNL1        0.0343
     30 C         143.2858  135.0756  154.9131 C.ar    1  UNL1        0.0045
     31 C         141.8493  134.8545  154.5424 C.ar    1  UNL1        0.0208
     32 C         140.7810  135.7318  155.1245 C.ar    1  UNL1        0.1003
     33 N         141.1491  136.8302  156.0774 N.ar    1  UNL1       -0.2292
@<TRIPOS>BOND
     1    12    13    1
     2    13    14    1
     3    13     6    1
     4     6     7   ar
     5     7     8   ar
     6     8     9   ar
     7     9     1    1
     8     1     2   ar
     9     2     3   ar
    10     3    21    1
    11    21    22    1
    12    22    23    1
    13    23    24    1
    14    24    25    1
    15    25    28    1
    16    28    29   ar
    17    29    30   ar
    18    30    31   ar
    19    31    32   ar
    20    32    33   ar
    21    25    26    1
    22    26    27    1
    23     3     4   ar
    24     4     5   ar
    25     5    15    1
    26    15    16    1
    27    16    17    1
    28    17    18    1
    29    18    19    1
    30    19    20    1
    31     9    10   ar
    32    10    11   ar
    33    11     6   ar
    34     5     1   ar
    35    20    15    1
    36    27    22    1
    37    33    28   ar
@<TRIPOS>MOLECULE
*****
 33 37 0 0 0
SMALL
GASTEIGER

@<TRIPOS>ATOM
      1 C         141.1940  142.4869  164.3046 C.ar    1  UNL1        0.0790
      2 C         141.5680  143.5686  163.3351 C.ar    1  UNL1        0.0365
      3 C         141.1418  143.1309  161.9651 C.ar    1  UNL1        0.0962
      4 N         140.5045  141.7786  162.0879 N.ar    1  UNL1       -0.1723
      5 N         140.5367  141.3806  163.5337 N.ar    1  UNL1       -0.2531
      6 C         141.9170  142.5494  168.7457 C.ar    1  UNL1       -0.0225
      7 C         143.0391  142.2162  167.8077 C.ar    1  UNL1       -0.0042
      8 C         142.7981  142.1954  166.3274 C.ar    1  UNL1        0.0012
      9 C         141.4350  142.5077  165.7849 C.ar    1  UNL1        0.0173
     10 C         140.3129  142.8409  166.7229 C.ar    1  UNL1        0.0012
     11 C         140.5539  142.8617  168.2032 C.ar    1  UNL1       -0.0042
     12 C         141.2710  141.7795  171.1415 C.3     1  UNL1        0.0047
     13 C         142.1580  142.5702  170.2260 C.3     1  UNL1        0.0224
     14 C         143.2859  143.3818  170.7909 C.3     1  UNL1        0.0047
     15 C         140.0050  140.1009  164.1080 C.3     1  UNL1        0.1052
     16 C         138.7622  140.1151  164.9479 C.3     1  UNL1        0.0244
     17 C         138.2305  138.8354  165.5221 C.3     1  UNL1        0.0020
     18 C         138.9415  137.5416  165.2565 C.3     1  UNL1        0.0001
     19 C         140.1842  137.5275  164.4166 C.3     1  UNL1        0.0020
     20 C         140.7160  138.8072  163.8424 C.3     1  UNL1        0.0244
     21 C         141.3215  143.9089  160.6953 C.3     1  UNL1        0.1206
     22 N         142.3793  143.5049  159.7115 N.3     1  UNL1       -0.2646
     23 C         142.1535  143.7065  158.2423 C.3     1  UNL1        0.0941
     24 C         143.2112  143.3025  157.2585 C.3     1  UNL1        0.1095
     25 N         144.4948  142.6969  157.7439 N.pl3   1  UNL1       -0.2904
     26 C         144.7207  142.4952  159.2129 C.3     1  UNL1        0.1095
     27 C         143.6629  142.8993  160.1969 C.3     1  UNL1        0.0941
     28 C         145.5527  142.2928  156.7601 C.ar    1  UNL1        0.1318
     29 C         145.1708  141.5677  155.5037 C.ar    1  UNL1        0.0343
     30 C         146.2286  141.1636  154.5200 C.ar    1  UNL1        0.0045
     31 C         147.6682  141.4846  154.7925 C.ar    1  UNL1        0.0208
     32 C         148.0501  142.2098  156.0488 C.ar    1  UNL1        0.1003
     33 N         146.9923  142.6138  157.0326 N.ar    1  UNL1       -0.2292
@<TRIPOS>BOND
     1    12    13    1
     2    13    14    1
     3    13     6    1
     4     6     7   ar
     5     7     8   ar
     6     8     9   ar
     7     9     1    1
     8     1     2   ar
     9     2     3   ar
    10     3    21    1
    11    21    22    1
    12    22    23    1
    13    23    24    1
    14    24    25    1
    15    25    28    1
    16    28    29   ar
    17    29    30   ar
    18    30    31   ar
    19    31    32   ar
    20    32    33   ar
    21    25    26    1
    22    26    27    1
    23     3     4   ar
    24     4     5   ar
    25     5    15    1
    26    15    16    1
    27    16    17    1
    28    17    18    1
    29    18    19    1
    30    19    20    1
    31     9    10   ar
    32    10    11   ar
    33    11     6   ar
    34     5     1   ar
    35    20    15    1
    36    27    22    1
    37    33    28   ar
@<TRIPOS>MOLECULE
*****
 33 37 0 0 0
SMALL
GASTEIGER

@<TRIPOS>ATOM
      1 C         142.7101  139.4910  160.3773 C.ar    1  UNL1        0.0790
      2 C         143.2448  139.3708  158.9810 C.ar    1  UNL1        0.0365
      3 C         142.6802  138.1206  158.3743 C.ar    1  UNL1        0.0962
      4 N         141.7965  137.4680  159.3957 N.ar    1  UNL1       -0.1723
      5 N         141.8150  138.3149  160.6336 N.ar    1  UNL1       -0.2531
      6 C         143.6299  142.7986  163.2865 C.ar    1  UNL1       -0.0225
      7 C         142.3154  142.7790  162.5643 C.ar    1  UNL1       -0.0042
      8 C         142.0088  141.6764  161.5946 C.ar    1  UNL1        0.0012
      9 C         143.0167  140.5935  161.3470 C.ar    1  UNL1        0.0173
     10 C         144.3312  140.6131  162.0693 C.ar    1  UNL1        0.0012
     11 C         144.6378  141.7157  163.0390 C.ar    1  UNL1       -0.0042
     12 C         144.6383  143.5925  165.5454 C.3     1  UNL1        0.0047
     13 C         143.9364  143.9012  164.2562 C.3     1  UNL1        0.0224
     14 C         143.5412  145.3124  163.9368 C.3     1  UNL1        0.0047
     15 C         141.0693  138.0349  161.9046 C.3     1  UNL1        0.1052
     16 C         139.5716  138.1169  161.9292 C.3     1  UNL1        0.0244
     17 C         138.8259  137.8369  163.2002 C.3     1  UNL1        0.0020
     18 C         139.5778  137.4750  164.4467 C.3     1  UNL1        0.0001
     19 C         141.0753  137.3930  164.4221 C.3     1  UNL1        0.0020
     20 C         141.8210  137.6730  163.1511 C.3     1  UNL1        0.0244
     21 C         142.9516  137.6122  156.9895 C.3     1  UNL1        0.1206
     22 N         142.6646  136.1804  156.6465 N.3     1  UNL1       -0.2646
     23 C         143.3618  135.0777  157.3867 C.3     1  UNL1        0.0941
     24 C         143.0748  133.6459  157.0437 C.3     1  UNL1        0.1095
     25 N         142.0907  133.3169  155.9606 N.pl3   1  UNL1       -0.2904
     26 C         141.3935  134.4195  155.2204 C.3     1  UNL1        0.1095
     27 C         141.6805  135.8514  155.5633 C.3     1  UNL1        0.0941
     28 C         141.8037  131.8850  155.6176 C.ar    1  UNL1        0.1318
     29 C         140.6045  131.5390  154.7855 C.ar    1  UNL1        0.0343
     30 C         140.3175  130.1073  154.4425 C.ar    1  UNL1        0.0045
     31 C         141.2296  129.0215  154.9315 C.ar    1  UNL1        0.0208
     32 C         142.4287  129.3676  155.7635 C.ar    1  UNL1        0.1003
     33 N         142.7158  130.7993  156.1065 N.ar    1  UNL1       -0.2292
@<TRIPOS>BOND
     1    12    13    1
     2    13    14    1
     3    13     6    1
     4     6     7   ar
     5     7     8   ar
     6     8     9   ar
     7     9     1    1
     8     1     2   ar
     9     2     3   ar
    10     3    21    1
    11    21    22    1
    12    22    23    1
    13    23    24    1
    14    24    25    1
    15    25    28    1
    16    28    29   ar
    17    29    30   ar
    18    30    31   ar
    19    31    32   ar
    20    32    33   ar
    21    25    26    1
    22    26    27    1
    23     3     4   ar
    24     4     5   ar
    25     5    15    1
    26    15    16    1
    27    16    17    1
    28    17    18    1
    29    18    19    1
    30    19    20    1
    31     9    10   ar
    32    10    11   ar
    33    11     6   ar
    34     5     1   ar
    35    20    15    1
    36    27    22    1
    37    33    28   ar
@<TRIPOS>MOLECULE
*****
 33 37 0 0 0
SMALL
GASTEIGER

@<TRIPOS>ATOM
      1 C         142.2194  138.2330  160.5347 C.ar    1  UNL1        0.0790
      2 C         143.0372  137.4626  159.5410 C.ar    1  UNL1        0.0365
      3 C         142.4373  137.6753  158.1827 C.ar    1  UNL1        0.0962
      4 N         141.2487  138.5772  158.3370 N.ar    1  UNL1       -0.1723
      5 N         141.1141  138.9219  159.7906 N.ar    1  UNL1       -0.2531
      6 C         142.9531  138.4413  164.9696 C.ar    1  UNL1       -0.0225
      7 C         143.9038  139.1080  164.0200 C.ar    1  UNL1       -0.0042
      8 C         143.6592  139.0386  162.5417 C.ar    1  UNL1        0.0012
      9 C         142.4640  138.3024  162.0130 C.ar    1  UNL1        0.0173
     10 C         141.5134  137.6357  162.9626 C.ar    1  UNL1        0.0012
     11 C         141.7580  137.7051  164.4409 C.ar    1  UNL1       -0.0042
     12 C         144.1803  137.5769  167.0902 C.3     1  UNL1        0.0047
     13 C         143.1977  138.5107  166.4479 C.3     1  UNL1        0.0224
     14 C         142.4597  139.5138  167.2839 C.3     1  UNL1        0.0047
     15 C         140.0592  139.8011  160.3942 C.3     1  UNL1        0.1052
     16 C         140.2995  141.2756  160.5303 C.3     1  UNL1        0.0244
     17 C         139.2446  142.1548  161.1339 C.3     1  UNL1        0.0020
     18 C         137.9495  141.5596  161.6013 C.3     1  UNL1        0.0001
     19 C         137.7093  140.0853  161.4651 C.3     1  UNL1        0.0020
     20 C         138.7641  139.2061  160.8616 C.3     1  UNL1        0.0244
     21 C         142.9381  137.0890  156.8960 C.3     1  UNL1        0.1206
     22 N         142.6250  135.6636  156.5494 N.3     1  UNL1       -0.2646
     23 C         143.3183  134.5465  157.2715 C.3     1  UNL1        0.0941
     24 C         143.0052  133.1211  156.9248 C.3     1  UNL1        0.1095
     25 N         141.9989  132.8128  155.8561 N.pl3   1  UNL1       -0.2904
     26 C         141.3056  133.9298  155.1340 C.3     1  UNL1        0.1095
     27 C         141.6187  135.3554  155.4806 C.3     1  UNL1        0.0941
     28 C         141.6857  131.3873  155.5094 C.ar    1  UNL1        0.1318
     29 C         140.4660  131.0632  154.6987 C.ar    1  UNL1        0.0343
     30 C         140.1528  129.6379  154.3520 C.ar    1  UNL1        0.0045
     31 C         141.0594  128.5366  154.8159 C.ar    1  UNL1        0.0208
     32 C         142.2792  128.8607  155.6265 C.ar    1  UNL1        0.1003
     33 N         142.5923  130.2861  155.9732 N.ar    1  UNL1       -0.2292
@<TRIPOS>BOND
     1    12    13    1
     2    13    14    1
     3    13     6    1
     4     6     7   ar
     5     7     8   ar
     6     8     9   ar
     7     9     1    1
     8     1     2   ar
     9     2     3   ar
    10     3    21    1
    11    21    22    1
    12    22    23    1
    13    23    24    1
    14    24    25    1
    15    25    28    1
    16    28    29   ar
    17    29    30   ar
    18    30    31   ar
    19    31    32   ar
    20    32    33   ar
    21    25    26    1
    22    26    27    1
    23     3     4   ar
    24     4     5   ar
    25     5    15    1
    26    15    16    1
    27    16    17    1
    28    17    18    1
    29    18    19    1
    30    19    20    1
    31     9    10   ar
    32    10    11   ar
    33    11     6   ar
    34     5     1   ar
    35    20    15    1
    36    27    22    1
    37    33    28   ar
@<TRIPOS>MOLECULE
*****
 33 37 0 0 0
SMALL
GASTEIGER

@<TRIPOS>ATOM
      1 C         141.6609  139.6980  159.8151 C.ar    1  UNL1        0.0790
      2 C         141.8918  139.4945  158.3470 C.ar    1  UNL1        0.0365
      3 C         142.5872  138.1779  158.1652 C.ar    1  UNL1        0.0962
      4 N         142.7861  137.5677  159.5209 N.ar    1  UNL1       -0.1723
      5 N         142.2136  138.5071  160.5406 N.ar    1  UNL1       -0.2531
      6 C         139.6613  143.2562  161.7100 C.ar    1  UNL1       -0.0225
      7 C         141.0813  143.3574  161.2373 C.ar    1  UNL1       -0.0042
      8 C         141.7478  142.1713  160.6057 C.ar    1  UNL1        0.0012
      9 C         140.9944  140.8841  160.4467 C.ar    1  UNL1        0.0173
     10 C         139.5744  140.7829  160.9194 C.ar    1  UNL1        0.0012
     11 C         138.9079  141.9690  161.5510 C.ar    1  UNL1       -0.0042
     12 C         139.5555  145.8176  162.1319 C.3     1  UNL1        0.0047
     13 C         138.9948  144.4423  162.3416 C.3     1  UNL1        0.0224
     14 C         137.7675  144.2530  163.1830 C.3     1  UNL1        0.0047
     15 C         142.1968  138.2933  162.0252 C.3     1  UNL1        0.1052
     16 C         143.2441  138.9339  162.8872 C.3     1  UNL1        0.0244
     17 C         143.2273  138.7200  164.3717 C.3     1  UNL1        0.0020
     18 C         142.1633  137.8656  164.9944 C.3     1  UNL1        0.0001
     19 C         141.1160  137.2250  164.1325 C.3     1  UNL1        0.0020
     20 C         141.1328  137.4389  162.6479 C.3     1  UNL1        0.0244
     21 C         143.0095  137.5771  156.8573 C.3     1  UNL1        0.1206
     22 N         142.6983  136.1409  156.5564 N.3     1  UNL1       -0.2646
     23 C         141.6678  135.7976  155.5220 C.3     1  UNL1        0.0941
     24 C         141.3565  134.3614  155.2211 C.3     1  UNL1        0.1095
     25 N         142.0759  133.2686  155.9548 N.pl3   1  UNL1       -0.2904
     26 C         143.1064  133.6118  156.9892 C.3     1  UNL1        0.1095
     27 C         143.4177  135.0481  157.2901 C.3     1  UNL1        0.0941
     28 C         141.7647  131.8323  155.6539 C.ar    1  UNL1        0.1318
     29 C         140.5838  131.4844  154.7970 C.ar    1  UNL1        0.0343
     30 C         140.2726  130.0482  154.4961 C.ar    1  UNL1        0.0045
     31 C         141.1422  128.9599  155.0522 C.ar    1  UNL1        0.0208
     32 C         142.3231  129.3079  155.9092 C.ar    1  UNL1        0.1003
     33 N         142.6343  130.7440  156.2100 N.ar    1  UNL1       -0.2292
@<TRIPOS>BOND
     1    12    13    1
     2    13    14    1
     3    13     6    1
     4     6     7   ar
     5     7     8   ar
     6     8     9   ar
     7     9     1    1
     8     1     2   ar
     9     2     3   ar
    10     3    21    1
    11    21    22    1
    12    22    23    1
    13    23    24    1
    14    24    25    1
    15    25    28    1
    16    28    29   ar
    17    29    30   ar
    18    30    31   ar
    19    31    32   ar
    20    32    33   ar
    21    25    26    1
    22    26    27    1
    23     3     4   ar
    24     4     5   ar
    25     5    15    1
    26    15    16    1
    27    16    17    1
    28    17    18    1
    29    18    19    1
    30    19    20    1
    31     9    10   ar
    32    10    11   ar
    33    11     6   ar
    34     5     1   ar
    35    20    15    1
    36    27    22    1
    37    33    28   ar
@<TRIPOS>MOLECULE
*****
 33 37 0 0 0
SMALL
GASTEIGER

@<TRIPOS>ATOM
      1 C         140.9360  139.9252  164.1174 C.ar    1  UNL1        0.0790
      2 C         141.4147  138.8541  163.1828 C.ar    1  UNL1        0.0365
      3 C         141.0568  139.2645  161.7851 C.ar    1  UNL1        0.0962
      4 N         140.3570  140.5894  161.8559 N.ar    1  UNL1       -0.1723
      5 N         140.2823  140.9977  163.2973 N.ar    1  UNL1       -0.2531
      6 C         141.3826  139.9218  168.5952 C.ar    1  UNL1       -0.0225
      7 C         140.0158  139.9469  167.9778 C.ar    1  UNL1       -0.0042
      8 C         139.8669  139.9480  166.4852 C.ar    1  UNL1        0.0012
      9 C         141.0848  139.9241  165.6100 C.ar    1  UNL1        0.0173
     10 C         142.4516  139.8991  166.2274 C.ar    1  UNL1        0.0012
     11 C         142.6005  139.8979  167.7200 C.ar    1  UNL1       -0.0042
     12 C         142.8978  139.8783  170.7052 C.3     1  UNL1        0.0047
     13 C         141.5314  139.9207  170.0878 C.3     1  UNL1        0.0224
     14 C         140.3139  139.9620  170.9630 C.3     1  UNL1        0.0047
     15 C         139.6627  142.2573  163.8259 C.3     1  UNL1        0.1052
     16 C         140.5224  143.4523  164.1144 C.3     1  UNL1        0.0244
     17 C         139.9028  144.7120  164.6429 C.3     1  UNL1        0.0020
     18 C         138.4235  144.7767  164.8830 C.3     1  UNL1        0.0001
     19 C         137.5639  143.5818  164.5946 C.3     1  UNL1        0.0020
     20 C         138.1835  142.3222  164.0660 C.3     1  UNL1        0.0244
     21 C         141.3478  138.4867  160.5360 C.3     1  UNL1        0.1206
     22 N         142.2786  139.0483  159.5025 N.3     1  UNL1       -0.2646
     23 C         143.2143  140.1640  159.8629 C.3     1  UNL1        0.0941
     24 C         144.1451  140.7256  158.8294 C.3     1  UNL1        0.1095
     25 N         144.1401  140.1716  157.4355 N.pl3   1  UNL1       -0.2904
     26 C         143.2045  139.0561  157.0750 C.3     1  UNL1        0.1095
     27 C         142.2736  138.4944  158.1085 C.3     1  UNL1        0.0941
     28 C         145.0710  140.7333  156.4019 C.ar    1  UNL1        0.1318
     29 C         145.0288  140.2161  154.9944 C.ar    1  UNL1        0.0343
     30 C         145.9596  140.7777  153.9609 C.ar    1  UNL1        0.0045
     31 C         146.9325  141.8564  154.3346 C.ar    1  UNL1        0.0208
     32 C         146.9746  142.3736  155.7421 C.ar    1  UNL1        0.1003
     33 N         146.0438  141.8120  156.7756 N.ar    1  UNL1       -0.2292
@<TRIPOS>BOND
     1    12    13    1
     2    13    14    1
     3    13     6    1
     4     6     7   ar
     5     7     8   ar
     6     8     9   ar
     7     9     1    1
     8     1     2   ar
     9     2     3   ar
    10     3    21    1
    11    21    22    1
    12    22    23    1
    13    23    24    1
    14    24    25    1
    15    25    28    1
    16    28    29   ar
    17    29    30   ar
    18    30    31   ar
    19    31    32   ar
    20    32    33   ar
    21    25    26    1
    22    26    27    1
    23     3     4   ar
    24     4     5   ar
    25     5    15    1
    26    15    16    1
    27    16    17    1
    28    17    18    1
    29    18    19    1
    30    19    20    1
    31     9    10   ar
    32    10    11   ar
    33    11     6   ar
    34     5     1   ar
    35    20    15    1
    36    27    22    1
    37    33    28   ar
