@<TRIPOS>MOLECULE
*****
 38 42 0 0 0
SMALL
GASTEIGER

@<TRIPOS>ATOM
      1 C         139.4722  142.9200  161.0826 C.ar    1  UNL1        0.1233
      2 C         140.3353  142.9988  162.3069 C.ar    1  UNL1        0.1180
      3 N         139.7314  142.1150  163.3576 N.ar    1  UNL1       -0.2233
      4 N         138.4950  141.4899  162.7827 N.ar    1  UNL1       -0.0634
      5 N         138.3347  141.9874  161.3767 N.ar    1  UNL1       -0.1287
      6 C         140.2694  141.8948  164.7404 C.3     1  UNL1        0.1834
      7 C         139.9692  142.9765  165.7353 C.3     1  UNL1        0.0386
      8 C         140.3619  143.0525  167.1810 C.3     1  UNL1        0.0324
      9 C         141.1519  142.0659  167.9888 C.ar    1  UNL1        0.0192
     10 C         141.3216  142.5285  169.4055 C.ar    1  UNL1        0.1396
     11 F         140.7293  143.8350  169.8439 F       1  UNL1       -0.2044
     12 C         142.0837  141.6846  170.3838 C.ar    1  UNL1        0.0590
     13 C         142.6760  140.3781  169.9453 C.ar    1  UNL1        0.1436
     14 F         143.4381  139.5342  170.9237 F       1  UNL1       -0.2041
     15 C         142.5062  139.9155  168.5286 C.ar    1  UNL1        0.0444
     16 C         141.7442  140.7594  167.5504 C.ar    1  UNL1        0.0546
     17 N         141.6928  140.1169  166.1959 N.am    1  UNL1       -0.2490
     18 C         141.0365  140.6222  164.9453 C.2     1  UNL1        0.2520
     19 O         141.0669  139.8648  163.6509 O.2     1  UNL1       -0.2724
     20 C         142.3899  138.7942  166.0761 C.3     1  UNL1        0.2016
     21 C         143.8543  138.7445  165.7547 C.3     1  UNL1        0.4160
     22 F         145.3186  138.6950  165.4333 F       1  UNL1       -0.1682
     23 F         143.9030  139.9964  164.9298 F       1  UNL1       -0.1682
     24 F         143.9851  137.4772  166.5464 F       1  UNL1       -0.1682
     25 C         139.3213  143.8638  157.2309 C.ar    1  UNL1        0.1547
     26 C         139.0879  143.1375  158.5223 C.ar    1  UNL1        0.0400
     27 C         139.7055  143.6463  159.7911 C.ar    1  UNL1        0.0241
     28 C         140.5564  144.8814  159.7683 C.ar    1  UNL1        0.0033
     29 C         140.7897  145.6076  158.4768 C.ar    1  UNL1        0.0207
     30 C         140.1722  145.0989  157.2081 C.ar    1  UNL1        0.0994
     31 N         140.4055  145.8252  155.9165 N.ar    1  UNL1       -0.2839
     32 C         141.2661  145.3529  154.7823 C.ar    1  UNL1        0.1826
     33 N         141.2117  146.3872  153.6974 N.ar    1  UNL1       -0.2280
     34 C         140.3176  147.4987  154.1609 C.ar    1  UNL1        0.0786
     35 C         139.9808  148.7397  153.3886 C.3     1  UNL1        0.0538
     36 C         139.8193  147.1514  155.5325 C.ar    1  UNL1        0.0963
     37 C         137.3946  143.9135  155.4886 C.3     1  UNL1        0.2525
     38 O         138.7037  143.3550  155.9621 O.3     1  UNL1       -0.4700
@<TRIPOS>BOND
     1    37    38    1
     2    38    25    1
     3    25    26   ar
     4    26    27   ar
     5    27     1    1
     6     1     2   ar
     7     2     3   ar
     8     3     6    1
     9     6     7    1
    10     7     8    1
    11     8     9    1
    12     9    10   ar
    13    10    11    1
    14    10    12   ar
    15    12    13   ar
    16    13    14    1
    17    13    15   ar
    18    15    16   ar
    19    16    17    1
    20    17    20    1
    21    20    21    1
    22    21    22    1
    23    21    23    1
    24    21    24    1
    25    17    18   am
    26    18    19    2
    27     3     4   ar
    28     4     5   ar
    29    27    28   ar
    30    28    29   ar
    31    29    30   ar
    32    30    31    1
    33    31    32   ar
    34    32    33   ar
    35    33    34   ar
    36    34    35    1
    37    34    36   ar
    38    30    25   ar
    39    36    31   ar
    40     5     1   ar
    41    18     6    1
    42    16     9   ar
@<TRIPOS>MOLECULE
*****
 38 42 0 0 0
SMALL
GASTEIGER

@<TRIPOS>ATOM
      1 C         141.1510  139.8929  159.9909 C.ar    1  UNL1        0.1233
      2 C         141.1777  139.4159  161.4128 C.ar    1  UNL1        0.1180
      3 N         141.0106  140.6098  162.3054 N.ar    1  UNL1       -0.2233
      4 N         140.8807  141.8246  161.4351 N.ar    1  UNL1       -0.0634
      5 N         140.9674  141.3815  160.0047 N.ar    1  UNL1       -0.1287
      6 C         140.9790  140.5920  163.8050 C.3     1  UNL1        0.1834
      7 C         142.2135  141.1012  164.4880 C.3     1  UNL1        0.0386
      8 C         142.4909  141.2115  165.9580 C.3     1  UNL1        0.0324
      9 C         141.6024  140.8398  167.1080 C.ar    1  UNL1        0.0192
     10 C         142.2678  141.1113  168.4246 C.ar    1  UNL1        0.1396
     11 F         143.6533  141.6851  168.4607 F       1  UNL1       -0.2044
     12 C         141.5477  140.8090  169.7052 C.ar    1  UNL1        0.0590
     13 C         140.1622  140.2352  169.6692 C.ar    1  UNL1        0.1436
     14 F         139.4421  139.9329  170.9499 F       1  UNL1       -0.2041
     15 C         139.4969  139.9638  168.3526 C.ar    1  UNL1        0.0444
     16 C         140.2170  140.2661  167.0720 C.ar    1  UNL1        0.0546
     17 N         139.3779  139.9223  165.8771 N.am    1  UNL1       -0.2490
     18 C         139.7169  140.0673  164.4231 C.2     1  UNL1        0.2520
     19 O         138.7697  139.6784  163.3270 O.2     1  UNL1       -0.2724
     20 C         138.0201  139.3589  166.1757 C.3     1  UNL1        0.2016
     21 C         137.8644  137.8983  166.4798 C.3     1  UNL1        0.4160
     22 F         137.7088  136.4378  166.7838 F       1  UNL1       -0.1682
     23 F         138.8289  137.3929  165.4481 F       1  UNL1       -0.1682
     24 F         136.8736  138.2282  167.5566 F       1  UNL1       -0.1682
     25 C         142.7606  137.9830  156.9068 C.ar    1  UNL1        0.1547
     26 C         142.6272  138.8436  158.1280 C.ar    1  UNL1        0.0400
     27 C         141.2845  139.0322  158.7696 C.ar    1  UNL1        0.0241
     28 C         140.0752  138.3602  158.1899 C.ar    1  UNL1        0.0033
     29 C         140.2087  137.4996  156.9686 C.ar    1  UNL1        0.0207
     30 C         141.5513  137.3110  156.3271 C.ar    1  UNL1        0.0994
     31 N         141.6848  136.4503  155.1058 N.ar    1  UNL1       -0.2839
     32 C         141.7263  136.9340  153.6865 C.ar    1  UNL1        0.1826
     33 N         141.8673  135.7375  152.7930 N.ar    1  UNL1       -0.2280
     34 C         141.9129  134.5143  153.6600 C.ar    1  UNL1        0.0786
     35 C         142.0476  133.0990  153.1816 C.3     1  UNL1        0.0538
     36 C         141.8001  134.9548  155.0894 C.ar    1  UNL1        0.0963
     37 C         144.5930  138.7807  155.2467 C.3     1  UNL1        0.2525
     38 O         144.1033  137.7945  156.2653 O.3     1  UNL1       -0.4700
@<TRIPOS>BOND
     1    37    38    1
     2    38    25    1
     3    25    26   ar
     4    26    27   ar
     5    27     1    1
     6     1     2   ar
     7     2     3   ar
     8     3     6    1
     9     6     7    1
    10     7     8    1
    11     8     9    1
    12     9    10   ar
    13    10    11    1
    14    10    12   ar
    15    12    13   ar
    16    13    14    1
    17    13    15   ar
    18    15    16   ar
    19    16    17    1
    20    17    20    1
    21    20    21    1
    22    21    22    1
    23    21    23    1
    24    21    24    1
    25    17    18   am
    26    18    19    2
    27     3     4   ar
    28     4     5   ar
    29    27    28   ar
    30    28    29   ar
    31    29    30   ar
    32    30    31    1
    33    31    32   ar
    34    32    33   ar
    35    33    34   ar
    36    34    35    1
    37    34    36   ar
    38    30    25   ar
    39    36    31   ar
    40     5     1   ar
    41    18     6    1
    42    16     9   ar
@<TRIPOS>MOLECULE
*****
 38 42 0 0 0
SMALL
GASTEIGER

@<TRIPOS>ATOM
      1 C         142.8709  137.1088  157.5771 C.ar    1  UNL1        0.1233
      2 C         142.6656  137.3812  159.0378 C.ar    1  UNL1        0.1180
      3 N         143.0192  138.8159  159.2959 N.ar    1  UNL1       -0.2233
      4 N         143.4431  139.4301  157.9948 N.ar    1  UNL1       -0.0634
      5 N         143.3515  138.3750  156.9324 N.ar    1  UNL1       -0.1287
      6 C         142.9595  139.5138  160.6223 C.3     1  UNL1        0.1834
      7 C         144.2580  140.0746  161.1217 C.3     1  UNL1        0.0386
      8 C         144.5268  140.8187  162.3961 C.3     1  UNL1        0.0324
      9 C         143.5636  141.1858  163.4858 C.ar    1  UNL1        0.0192
     10 C         144.2468  141.9334  164.5923 C.ar    1  UNL1        0.1396
     11 F         145.7168  142.2197  164.5079 F       1  UNL1       -0.2044
     12 C         143.4601  142.3946  165.7832 C.ar    1  UNL1        0.0590
     13 C         141.9901  142.1082  165.8676 C.ar    1  UNL1        0.1436
     14 F         141.2034  142.5695  167.0586 F       1  UNL1       -0.2041
     15 C         141.3068  141.3607  164.7612 C.ar    1  UNL1        0.0444
     16 C         142.0936  140.8995  163.5703 C.ar    1  UNL1        0.0546
     17 N         141.2238  140.1753  162.5858 N.am    1  UNL1       -0.2490
     18 C         141.6091  139.5586  161.2739 C.2     1  UNL1        0.2520
     19 O         140.6228  138.8597  160.3858 O.2     1  UNL1       -0.2724
     20 C         139.7774  140.0514  162.9633 C.3     1  UNL1        0.2016
     21 C         139.1930  138.7025  163.2619 C.3     1  UNL1        0.4160
     22 F         138.6087  137.3537  163.5605 F       1  UNL1       -0.1682
     23 F         140.3367  138.1855  164.0832 F       1  UNL1       -0.1682
     24 F         137.9689  139.0578  162.4711 F       1  UNL1       -0.1682
     25 C         143.1311  133.2607  156.6422 C.ar    1  UNL1        0.1547
     26 C         143.3653  134.5695  157.3364 C.ar    1  UNL1        0.0400
     27 C         142.6368  135.7998  156.8829 C.ar    1  UNL1        0.0241
     28 C         141.6741  135.7212  155.7353 C.ar    1  UNL1        0.0033
     29 C         141.4400  134.4123  155.0411 C.ar    1  UNL1        0.0207
     30 C         142.1684  133.1820  155.4946 C.ar    1  UNL1        0.0994
     31 N         141.9342  131.8731  154.8003 N.ar    1  UNL1       -0.2839
     32 C         142.8532  131.2245  153.8079 C.ar    1  UNL1        0.1826
     33 N         142.2269  129.9336  153.3710 N.ar    1  UNL1       -0.2280
     34 C         140.9208  129.7842  154.0932 C.ar    1  UNL1        0.0786
     35 C         139.9636  128.6375  153.9562 C.3     1  UNL1        0.0538
     36 C         140.7399  130.9829  154.9767 C.ar    1  UNL1        0.0963
     37 C         145.1326  132.1583  157.8787 C.3     1  UNL1        0.2525
     38 O         143.8596  132.0303  157.0957 O.3     1  UNL1       -0.4700
@<TRIPOS>BOND
     1    37    38    1
     2    38    25    1
     3    25    26   ar
     4    26    27   ar
     5    27     1    1
     6     1     2   ar
     7     2     3   ar
     8     3     6    1
     9     6     7    1
    10     7     8    1
    11     8     9    1
    12     9    10   ar
    13    10    11    1
    14    10    12   ar
    15    12    13   ar
    16    13    14    1
    17    13    15   ar
    18    15    16   ar
    19    16    17    1
    20    17    20    1
    21    20    21    1
    22    21    22    1
    23    21    23    1
    24    21    24    1
    25    17    18   am
    26    18    19    2
    27     3     4   ar
    28     4     5   ar
    29    27    28   ar
    30    28    29   ar
    31    29    30   ar
    32    30    31    1
    33    31    32   ar
    34    32    33   ar
    35    33    34   ar
    36    34    35    1
    37    34    36   ar
    38    30    25   ar
    39    36    31   ar
    40     5     1   ar
    41    18     6    1
    42    16     9   ar
@<TRIPOS>MOLECULE
*****
 38 42 0 0 0
SMALL
GASTEIGER

@<TRIPOS>ATOM
      1 C         142.5566  137.7007  157.8108 C.ar    1  UNL1        0.1233
      2 C         141.7709  138.0874  159.0287 C.ar    1  UNL1        0.1180
      3 N         142.2993  139.4012  159.5235 N.ar    1  UNL1       -0.2233
      4 N         143.4115  139.8265  158.6113 N.ar    1  UNL1       -0.0634
      5 N         143.5706  138.7756  157.5529 N.ar    1  UNL1       -0.1287
      6 C         141.8026  140.1569  160.7202 C.3     1  UNL1        0.1834
      7 C         140.5514  140.9574  160.5111 C.3     1  UNL1        0.0386
      8 C         139.8114  141.8109  161.4980 C.3     1  UNL1        0.0324
      9 C         140.1398  142.0748  162.9376 C.ar    1  UNL1        0.0192
     10 C         139.1349  142.9916  163.5698 C.ar    1  UNL1        0.1396
     11 F         137.9854  143.5161  162.7615 F       1  UNL1       -0.2044
     12 C         139.2796  143.3838  165.0104 C.ar    1  UNL1        0.0590
     13 C         140.4292  142.8592  165.8187 C.ar    1  UNL1        0.1436
     14 F         140.5738  143.2515  167.2593 F       1  UNL1       -0.2041
     15 C         141.4340  141.9425  165.1865 C.ar    1  UNL1        0.0444
     16 C         141.2894  141.5503  163.7460 C.ar    1  UNL1        0.0546
     17 N         142.3944  140.6323  163.3143 N.am    1  UNL1       -0.2490
     18 C         142.6229  140.0122  161.9677 C.2     1  UNL1        0.2520
     19 O         143.7822  139.1053  161.6789 O.2     1  UNL1       -0.2724
     20 C         143.4046  140.2891  164.3687 C.3     1  UNL1        0.2016
     21 C         144.8189  140.7714  164.2376 C.3     1  UNL1        0.4160
     22 F         146.2332  141.2537  164.1065 F       1  UNL1       -0.1682
     23 F         144.4988  142.2213  164.0247 F       1  UNL1       -0.1682
     24 F         145.3152  139.3698  164.4360 F       1  UNL1       -0.1682
     25 C         143.0194  134.0067  156.4363 C.ar    1  UNL1        0.1547
     26 C         143.2136  135.2498  157.2528 C.ar    1  UNL1        0.0400
     27 C         142.3624  136.4575  156.9943 C.ar    1  UNL1        0.0241
     28 C         141.3169  136.4220  155.9193 C.ar    1  UNL1        0.0033
     29 C         141.1227  135.1788  155.1028 C.ar    1  UNL1        0.0207
     30 C         141.9739  133.9712  155.3613 C.ar    1  UNL1        0.0994
     31 N         141.7796  132.7279  154.5447 N.ar    1  UNL1       -0.2839
     32 C         142.4563  132.4129  153.2436 C.ar    1  UNL1        0.1826
     33 N         141.9695  131.0718  152.7808 N.ar    1  UNL1       -0.2280
     34 C         140.9919  130.5579  153.7957 C.ar    1  UNL1        0.0786
     35 C         140.2600  129.2501  153.7317 C.3     1  UNL1        0.0538
     36 C         140.8745  131.5815  154.8859 C.ar    1  UNL1        0.0963
     37 C         144.7943  132.7714  157.8763 C.3     1  UNL1        0.2525
     38 O         143.8706  132.7990  156.6948 O.3     1  UNL1       -0.4700
@<TRIPOS>BOND
     1    37    38    1
     2    38    25    1
     3    25    26   ar
     4    26    27   ar
     5    27     1    1
     6     1     2   ar
     7     2     3   ar
     8     3     6    1
     9     6     7    1
    10     7     8    1
    11     8     9    1
    12     9    10   ar
    13    10    11    1
    14    10    12   ar
    15    12    13   ar
    16    13    14    1
    17    13    15   ar
    18    15    16   ar
    19    16    17    1
    20    17    20    1
    21    20    21    1
    22    21    22    1
    23    21    23    1
    24    21    24    1
    25    17    18   am
    26    18    19    2
    27     3     4   ar
    28     4     5   ar
    29    27    28   ar
    30    28    29   ar
    31    29    30   ar
    32    30    31    1
    33    31    32   ar
    34    32    33   ar
    35    33    34   ar
    36    34    35    1
    37    34    36   ar
    38    30    25   ar
    39    36    31   ar
    40     5     1   ar
    41    18     6    1
    42    16     9   ar
@<TRIPOS>MOLECULE
*****
 38 42 0 0 0
SMALL
GASTEIGER

@<TRIPOS>ATOM
      1 C         140.4272  144.1426  161.2644 C.ar    1  UNL1        0.1233
      2 C         140.4148  143.0164  162.2552 C.ar    1  UNL1        0.1180
      3 N         140.9338  143.5419  163.5607 N.ar    1  UNL1       -0.2233
      4 N         141.2670  144.9928  163.3768 N.ar    1  UNL1       -0.0634
      5 N         140.9539  145.3641  161.9576 N.ar    1  UNL1       -0.1287
      6 C         141.0918  142.7546  164.8277 C.3     1  UNL1        0.1834
      7 C         140.2282  143.1879  165.9752 C.3     1  UNL1        0.0386
      8 C         140.1521  142.6117  167.3580 C.3     1  UNL1        0.0324
      9 C         140.9208  141.4600  167.9350 C.ar    1  UNL1        0.0192
     10 C         140.5403  141.2083  169.3639 C.ar    1  UNL1        0.1396
     11 F         139.5057  142.0682  170.0273 F       1  UNL1       -0.2044
     12 C         141.1945  140.0966  170.1294 C.ar    1  UNL1        0.0590
     13 C         142.2291  139.2366  169.4661 C.ar    1  UNL1        0.1436
     14 F         142.8833  138.1248  170.2317 F       1  UNL1       -0.2041
     15 C         142.6095  139.4884  168.0371 C.ar    1  UNL1        0.0444
     16 C         141.9554  140.6001  167.2716 C.ar    1  UNL1        0.0546
     17 N         142.4768  140.6795  165.8674 N.am    1  UNL1       -0.2490
     18 C         142.0926  141.6383  164.7797 C.2     1  UNL1        0.2520
     19 O         142.7039  141.5985  163.4106 O.2     1  UNL1       -0.2724
     20 C         143.5207  139.6659  165.5026 C.3     1  UNL1        0.2016
     21 C         143.2863  138.7270  164.3564 C.3     1  UNL1        0.4160
     22 F         143.0518  137.7882  163.2103 F       1  UNL1       -0.1682
     23 F         141.9328  138.2457  164.7882 F       1  UNL1       -0.1682
     24 F         144.6211  139.0968  163.7806 F       1  UNL1       -0.1682
     25 C         139.8768  145.0968  157.4518 C.ar    1  UNL1        0.1547
     26 C         140.3143  145.1780  158.8842 C.ar    1  UNL1        0.0400
     27 C         139.9897  144.0615  159.8319 C.ar    1  UNL1        0.0241
     28 C         139.2277  142.8639  159.3471 C.ar    1  UNL1        0.0033
     29 C         138.7902  142.7828  157.9146 C.ar    1  UNL1        0.0207
     30 C         139.1148  143.8992  156.9670 C.ar    1  UNL1        0.0994
     31 N         138.6773  143.8180  155.5344 N.ar    1  UNL1       -0.2839
     32 C         139.5763  143.6433  154.3465 C.ar    1  UNL1        0.1826
     33 N         138.7186  143.6147  153.1163 N.ar    1  UNL1       -0.2280
     34 C         137.2895  143.7716  153.5439 C.ar    1  UNL1        0.0786
     35 C         136.0955  143.7982  152.6363 C.3     1  UNL1        0.0538
     36 C         137.2639  143.8973  155.0384 C.ar    1  UNL1        0.0963
     37 C         139.1705  147.2579  156.1946 C.3     1  UNL1        0.2525
     38 O         140.2014  146.2133  156.5040 O.3     1  UNL1       -0.4700
@<TRIPOS>BOND
     1    37    38    1
     2    38    25    1
     3    25    26   ar
     4    26    27   ar
     5    27     1    1
     6     1     2   ar
     7     2     3   ar
     8     3     6    1
     9     6     7    1
    10     7     8    1
    11     8     9    1
    12     9    10   ar
    13    10    11    1
    14    10    12   ar
    15    12    13   ar
    16    13    14    1
    17    13    15   ar
    18    15    16   ar
    19    16    17    1
    20    17    20    1
    21    20    21    1
    22    21    22    1
    23    21    23    1
    24    21    24    1
    25    17    18   am
    26    18    19    2
    27     3     4   ar
    28     4     5   ar
    29    27    28   ar
    30    28    29   ar
    31    29    30   ar
    32    30    31    1
    33    31    32   ar
    34    32    33   ar
    35    33    34   ar
    36    34    35    1
    37    34    36   ar
    38    30    25   ar
    39    36    31   ar
    40     5     1   ar
    41    18     6    1
    42    16     9   ar
@<TRIPOS>MOLECULE
*****
 38 42 0 0 0
SMALL
GASTEIGER

@<TRIPOS>ATOM
      1 C         142.9909  142.6701  160.9917 C.ar    1  UNL1        0.1233
      2 C         142.8313  141.8162  162.2145 C.ar    1  UNL1        0.1180
      3 N         142.5191  142.7177  163.3720 N.ar    1  UNL1       -0.2233
      4 N         142.4858  144.1288  162.8646 N.ar    1  UNL1       -0.0634
      5 N         142.7773  144.0995  161.3935 N.ar    1  UNL1       -0.1287
      6 C         142.2820  142.2841  164.7883 C.3     1  UNL1        0.1834
      7 C         143.3751  142.6133  165.7614 C.3     1  UNL1        0.0386
      8 C         143.4392  142.3183  167.2307 C.3     1  UNL1        0.0324
      9 C         142.4261  141.6215  168.0899 C.ar    1  UNL1        0.0192
     10 C         142.8845  141.5331  169.5154 C.ar    1  UNL1        0.1396
     11 F         144.2119  142.1072  169.9134 F       1  UNL1       -0.2044
     12 C         142.0154  140.8706  170.5429 C.ar    1  UNL1        0.0590
     13 C         140.6880  140.2965  170.1449 C.ar    1  UNL1        0.1436
     14 F         139.8189  139.6340  171.1724 F       1  UNL1       -0.2041
     15 C         140.2297  140.3849  168.7194 C.ar    1  UNL1        0.0444
     16 C         141.0987  141.0474  167.6919 C.ar    1  UNL1        0.0546
     17 N         140.4566  141.0284  166.3364 N.am    1  UNL1       -0.2490
     18 C         140.9831  141.5788  165.0442 C.2     1  UNL1        0.2520
     19 O         140.2233  141.4865  163.7542 O.2     1  UNL1       -0.2724
     20 C         139.1097  140.3722  166.2635 C.3     1  UNL1        0.2016
     21 C         139.0024  138.9159  165.9203 C.3     1  UNL1        0.4160
     22 F         138.8953  137.4597  165.5772 F       1  UNL1       -0.1682
     23 F         140.4490  138.6995  165.5876 F       1  UNL1       -0.1682
     24 F         137.5318  138.9552  166.2134 F       1  UNL1       -0.1682
     25 C         143.6878  140.2187  157.9496 C.ar    1  UNL1        0.1547
     26 C         143.3704  140.7080  159.3315 C.ar    1  UNL1        0.0400
     27 C         143.3083  142.1807  159.6098 C.ar    1  UNL1        0.0241
     28 C         143.5635  143.1639  158.5062 C.ar    1  UNL1        0.0033
     29 C         143.8809  142.6745  157.1242 C.ar    1  UNL1        0.0207
     30 C         143.9430  141.2019  156.8460 C.ar    1  UNL1        0.0994
     31 N         144.2604  140.7125  155.4640 N.ar    1  UNL1       -0.2839
     32 C         145.6231  140.6574  154.8394 C.ar    1  UNL1        0.1826
     33 N         145.4757  140.1032  153.4535 N.ar    1  UNL1       -0.2280
     34 C         144.0220  139.8157  153.2214 C.ar    1  UNL1        0.0786
     35 C         143.4242  139.2508  151.9670 C.3     1  UNL1        0.0538
     36 C         143.2708  140.1923  154.4640 C.ar    1  UNL1        0.0963
     37 C         142.5516  137.8823  157.9322 C.3     1  UNL1        0.2525
     38 O         143.7499  138.7460  157.6714 O.3     1  UNL1       -0.4700
@<TRIPOS>BOND
     1    37    38    1
     2    38    25    1
     3    25    26   ar
     4    26    27   ar
     5    27     1    1
     6     1     2   ar
     7     2     3   ar
     8     3     6    1
     9     6     7    1
    10     7     8    1
    11     8     9    1
    12     9    10   ar
    13    10    11    1
    14    10    12   ar
    15    12    13   ar
    16    13    14    1
    17    13    15   ar
    18    15    16   ar
    19    16    17    1
    20    17    20    1
    21    20    21    1
    22    21    22    1
    23    21    23    1
    24    21    24    1
    25    17    18   am
    26    18    19    2
    27     3     4   ar
    28     4     5   ar
    29    27    28   ar
    30    28    29   ar
    31    29    30   ar
    32    30    31    1
    33    31    32   ar
    34    32    33   ar
    35    33    34   ar
    36    34    35    1
    37    34    36   ar
    38    30    25   ar
    39    36    31   ar
    40     5     1   ar
    41    18     6    1
    42    16     9   ar
@<TRIPOS>MOLECULE
*****
 38 42 0 0 0
SMALL
GASTEIGER

@<TRIPOS>ATOM
      1 C         142.8387  143.1382  160.9022 C.ar    1  UNL1        0.1233
      2 C         142.8486  142.2496  162.1107 C.ar    1  UNL1        0.1180
      3 N         142.2900  143.0292  163.2640 N.ar    1  UNL1       -0.2233
      4 N         141.9348  144.3997  162.7683 N.ar    1  UNL1       -0.0634
      5 N         142.2740  144.4671  161.3087 N.ar    1  UNL1       -0.1287
      6 C         142.1169  142.5267  164.6666 C.3     1  UNL1        0.1834
      7 C         143.2264  142.8609  165.6192 C.3     1  UNL1        0.0386
      8 C         143.3501  142.5073  167.0717 C.3     1  UNL1        0.0324
      9 C         142.3951  141.7322  167.9303 C.ar    1  UNL1        0.0192
     10 C         142.9025  141.6034  169.3359 C.ar    1  UNL1        0.1396
     11 F         144.2173  142.2164  169.7178 F       1  UNL1       -0.2044
     12 C         142.0953  140.8617  170.3597 C.ar    1  UNL1        0.0590
     13 C         140.7806  140.2487  169.9779 C.ar    1  UNL1        0.1436
     14 F         139.9733  139.5070  171.0017 F       1  UNL1       -0.2041
     15 C         140.2731  140.3775  168.5722 C.ar    1  UNL1        0.0444
     16 C         141.0804  141.1192  167.5484 C.ar    1  UNL1        0.0546
     17 N         140.3960  141.1300  166.2137 N.am    1  UNL1       -0.2490
     18 C         140.8573  141.7563  164.9311 C.2     1  UNL1        0.2520
     19 O         140.0606  141.6862  163.6621 O.2     1  UNL1       -0.2724
     20 C         139.0758  140.4205  166.1535 C.3     1  UNL1        0.2016
     21 C         139.0234  138.9613  165.8099 C.3     1  UNL1        0.4160
     22 F         138.9711  137.5022  165.4663 F       1  UNL1       -0.1682
     23 F         140.4328  138.8402  165.3111 F       1  UNL1       -0.1682
     24 F         137.5969  138.9041  166.2703 F       1  UNL1       -0.1682
     25 C         143.3789  143.2174  156.9714 C.ar    1  UNL1        0.1547
     26 C         142.9069  143.5920  158.3450 C.ar    1  UNL1        0.0400
     27 C         143.3107  142.7637  159.5286 C.ar    1  UNL1        0.0241
     28 C         144.1866  141.5609  159.3385 C.ar    1  UNL1        0.0033
     29 C         144.6586  141.1864  157.9649 C.ar    1  UNL1        0.0207
     30 C         144.2547  142.0146  156.7813 C.ar    1  UNL1        0.0994
     31 N         144.7268  141.6401  155.4076 N.ar    1  UNL1       -0.2839
     32 C         143.9149  140.9444  154.3555 C.ar    1  UNL1        0.1826
     33 N         144.7799  140.7698  153.1426 N.ar    1  UNL1       -0.2280
     34 C         146.1264  141.3576  153.4450 C.ar    1  UNL1        0.0786
     35 C         147.2998  141.4000  152.5115 C.3     1  UNL1        0.0538
     36 C         146.0936  141.8954  154.8449 C.ar    1  UNL1        0.0963
     37 C         141.6076  143.8863  155.1923 C.3     1  UNL1        0.2525
     38 O         142.9750  144.0457  155.7878 O.3     1  UNL1       -0.4700
@<TRIPOS>BOND
     1    37    38    1
     2    38    25    1
     3    25    26   ar
     4    26    27   ar
     5    27     1    1
     6     1     2   ar
     7     2     3   ar
     8     3     6    1
     9     6     7    1
    10     7     8    1
    11     8     9    1
    12     9    10   ar
    13    10    11    1
    14    10    12   ar
    15    12    13   ar
    16    13    14    1
    17    13    15   ar
    18    15    16   ar
    19    16    17    1
    20    17    20    1
    21    20    21    1
    22    21    22    1
    23    21    23    1
    24    21    24    1
    25    17    18   am
    26    18    19    2
    27     3     4   ar
    28     4     5   ar
    29    27    28   ar
    30    28    29   ar
    31    29    30   ar
    32    30    31    1
    33    31    32   ar
    34    32    33   ar
    35    33    34   ar
    36    34    35    1
    37    34    36   ar
    38    30    25   ar
    39    36    31   ar
    40     5     1   ar
    41    18     6    1
    42    16     9   ar
@<TRIPOS>MOLECULE
*****
 38 42 0 0 0
SMALL
GASTEIGER

@<TRIPOS>ATOM
      1 C         144.2463  142.7104  159.4741 C.ar    1  UNL1        0.1233
      2 C         144.2971  142.1008  160.8437 C.ar    1  UNL1        0.1180
      3 N         143.0954  142.5741  161.6067 N.ar    1  UNL1       -0.2233
      4 N         142.3020  143.4763  160.7086 N.ar    1  UNL1       -0.0634
      5 N         143.0133  143.5605  159.3906 N.ar    1  UNL1       -0.1287
      6 C         142.7482  142.2093  163.0196 C.3     1  UNL1        0.1834
      7 C         143.6338  142.7948  164.0793 C.3     1  UNL1        0.0386
      8 C         143.5511  142.6228  165.5671 C.3     1  UNL1        0.0324
      9 C         142.5626  141.8229  166.3627 C.ar    1  UNL1        0.0192
     10 C         142.8370  141.9198  167.8342 C.ar    1  UNL1        0.1396
     11 F         143.9871  142.7453  168.3300 F       1  UNL1       -0.2044
     12 C         141.9612  141.1911  168.8099 C.ar    1  UNL1        0.0590
     13 C         140.8111  140.3656  168.3141 C.ar    1  UNL1        0.1436
     14 F         139.9353  139.6369  169.2900 F       1  UNL1       -0.2041
     15 C         140.5367  140.2688  166.8427 C.ar    1  UNL1        0.0444
     16 C         141.4125  140.9974  165.8670 C.ar    1  UNL1        0.0546
     17 N         140.9669  140.7680  164.4531 N.am    1  UNL1       -0.2490
     18 C         141.5613  141.3073  163.1859 C.2     1  UNL1        0.2520
     19 O         141.0042  140.9899  161.8299 O.2     1  UNL1       -0.2724
     20 C         139.7684  139.8820  164.2842 C.3     1  UNL1        0.2016
     21 C         138.4755  140.4563  163.7855 C.3     1  UNL1        0.4160
     22 F         137.1827  141.0306  163.2868 F       1  UNL1       -0.1682
     23 F         138.4108  141.6144  164.7366 F       1  UNL1       -0.1682
     24 F         138.3818  139.3600  162.7659 F       1  UNL1       -0.1682
     25 C         145.9262  141.4210  156.1178 C.ar    1  UNL1        0.1547
     26 C         144.9206  141.6255  157.2117 C.ar    1  UNL1        0.0400
     27 C         145.2520  142.5058  158.3802 C.ar    1  UNL1        0.0241
     28 C         146.5891  143.1815  158.4547 C.ar    1  UNL1        0.0033
     29 C         147.5947  142.9770  157.3607 C.ar    1  UNL1        0.0207
     30 C         147.2633  142.0967  156.1924 C.ar    1  UNL1        0.0994
     31 N         148.2691  141.8922  155.0984 N.ar    1  UNL1       -0.2839
     32 C         148.0325  142.1036  153.6323 C.ar    1  UNL1        0.1826
     33 N         149.3052  141.7824  152.9064 N.ar    1  UNL1       -0.2280
     34 C         150.3283  141.3724  153.9237 C.ar    1  UNL1        0.0786
     35 C         151.7434  140.9659  153.6367 C.3     1  UNL1        0.0538
     36 C         149.6880  141.4402  155.2784 C.ar    1  UNL1        0.0963
     37 C         144.9851  139.1894  155.1776 C.3     1  UNL1        0.2525
     38 O         145.5948  140.5407  154.9494 O.3     1  UNL1       -0.4700
@<TRIPOS>BOND
     1    37    38    1
     2    38    25    1
     3    25    26   ar
     4    26    27   ar
     5    27     1    1
     6     1     2   ar
     7     2     3   ar
     8     3     6    1
     9     6     7    1
    10     7     8    1
    11     8     9    1
    12     9    10   ar
    13    10    11    1
    14    10    12   ar
    15    12    13   ar
    16    13    14    1
    17    13    15   ar
    18    15    16   ar
    19    16    17    1
    20    17    20    1
    21    20    21    1
    22    21    22    1
    23    21    23    1
    24    21    24    1
    25    17    18   am
    26    18    19    2
    27     3     4   ar
    28     4     5   ar
    29    27    28   ar
    30    28    29   ar
    31    29    30   ar
    32    30    31    1
    33    31    32   ar
    34    32    33   ar
    35    33    34   ar
    36    34    35    1
    37    34    36   ar
    38    30    25   ar
    39    36    31   ar
    40     5     1   ar
    41    18     6    1
    42    16     9   ar
@<TRIPOS>MOLECULE
*****
 38 42 0 0 0
SMALL
GASTEIGER

@<TRIPOS>ATOM
      1 C         139.5124  143.5509  160.7986 C.ar    1  UNL1        0.1233
      2 C         140.4129  143.1341  161.9235 C.ar    1  UNL1        0.1180
      3 N         139.5510  142.7557  163.0914 N.ar    1  UNL1       -0.2233
      4 N         138.1178  142.9387  162.6883 N.ar    1  UNL1       -0.0634
      5 N         138.0939  143.4301  161.2713 N.ar    1  UNL1       -0.1287
      6 C         140.0370  142.2782  164.4278 C.3     1  UNL1        0.1834
      7 C         140.0688  143.3106  165.5156 C.3     1  UNL1        0.0386
      8 C         140.4984  143.1512  166.9438 C.3     1  UNL1        0.0324
      9 C         141.0022  141.9201  167.6372 C.ar    1  UNL1        0.0192
     10 C         141.3238  142.1945  169.0764 C.ar    1  UNL1        0.1396
     11 F         141.1251  143.5702  169.6402 F       1  UNL1       -0.2044
     12 C         141.8439  141.0931  169.9518 C.ar    1  UNL1        0.0590
     13 C         142.0426  139.7173  169.3880 C.ar    1  UNL1        0.1436
     14 F         142.5627  138.6159  170.2634 F       1  UNL1       -0.2041
     15 C         141.7210  139.4430  167.9488 C.ar    1  UNL1        0.0444
     16 C         141.2009  140.5443  167.0734 C.ar    1  UNL1        0.0546
     17 N         140.9447  140.0599  165.6770 N.am    1  UNL1       -0.2490
     18 C         140.4268  140.8315  164.4996 C.2     1  UNL1        0.2520
     19 O         140.2188  140.2095  163.1506 O.2     1  UNL1       -0.2724
     20 C         141.2465  138.6124  165.4248 C.3     1  UNL1        0.2016
     21 C         140.1304  137.6530  165.1352 C.3     1  UNL1        0.4160
     22 F         139.0143  136.6936  164.8457 F       1  UNL1       -0.1682
     23 F         139.1108  138.2804  166.0390 F       1  UNL1       -0.1682
     24 F         141.0206  136.9030  164.1891 F       1  UNL1       -0.1682
     25 C         139.9981  143.6854  156.8622 C.ar    1  UNL1        0.1547
     26 C         139.5575  143.2281  158.2211 C.ar    1  UNL1        0.0400
     27 C         139.9530  144.0082  159.4397 C.ar    1  UNL1        0.0241
     28 C         140.7891  145.2456  159.2994 C.ar    1  UNL1        0.0033
     29 C         141.2297  145.7029  157.9404 C.ar    1  UNL1        0.0207
     30 C         140.8342  144.9228  156.7219 C.ar    1  UNL1        0.0994
     31 N         141.2749  145.3802  155.3629 N.ar    1  UNL1       -0.2839
     32 C         140.5327  146.3279  154.4679 C.ar    1  UNL1        0.1826
     33 N         141.3343  146.5035  153.2123 N.ar    1  UNL1       -0.2280
     34 C         142.5718  145.6643  153.3312 C.ar    1  UNL1        0.0786
     35 C         143.6558  145.5410  152.3017 C.3     1  UNL1        0.0538
     36 C         142.5352  144.9701  154.6603 C.ar    1  UNL1        0.0963
     37 C         138.3287  143.2341  154.9233 C.3     1  UNL1        0.2525
     38 O         139.6026  142.9053  155.6436 O.3     1  UNL1       -0.4700
@<TRIPOS>BOND
     1    37    38    1
     2    38    25    1
     3    25    26   ar
     4    26    27   ar
     5    27     1    1
     6     1     2   ar
     7     2     3   ar
     8     3     6    1
     9     6     7    1
    10     7     8    1
    11     8     9    1
    12     9    10   ar
    13    10    11    1
    14    10    12   ar
    15    12    13   ar
    16    13    14    1
    17    13    15   ar
    18    15    16   ar
    19    16    17    1
    20    17    20    1
    21    20    21    1
    22    21    22    1
    23    21    23    1
    24    21    24    1
    25    17    18   am
    26    18    19    2
    27     3     4   ar
    28     4     5   ar
    29    27    28   ar
    30    28    29   ar
    31    29    30   ar
    32    30    31    1
    33    31    32   ar
    34    32    33   ar
    35    33    34   ar
    36    34    35    1
    37    34    36   ar
    38    30    25   ar
    39    36    31   ar
    40     5     1   ar
    41    18     6    1
    42    16     9   ar
