@<TRIPOS>MOLECULE
*****
 22 24 0 0 0
SMALL
GASTEIGER

@<TRIPOS>ATOM
      1 N         140.6426  141.1010  166.6437 N.ar    1  UNL1       -0.2970
      2 C         141.7652  140.2100  166.2013 C.ar    1  UNL1        0.2012
      3 N         142.9187  140.4184  167.1373 N.ar    1  UNL1       -0.2136
      4 C         142.5090  141.4381  168.1581 C.ar    1  UNL1        0.0999
      5 C         143.2351  142.0370  169.3260 C.ar    1  UNL1        0.0207
      6 C         142.5545  143.0578  170.1889 C.ar    1  UNL1        0.0016
      7 C         141.1477  143.4798  169.8839 C.ar    1  UNL1        0.0016
      8 C         140.4216  142.8809  168.7160 C.ar    1  UNL1        0.0188
      9 C         141.1023  141.8601  167.8531 C.ar    1  UNL1        0.0799
     10 N         141.7390  139.2748  165.0288 N.pl3   1  UNL1       -0.2781
     11 C         141.0590  137.9387  164.9818 C.3     1  UNL1        0.0950
     12 C         141.2878  137.3497  163.6213 C.3     1  UNL1        0.0392
     13 C         142.1093  138.3218  162.8276 C.3     1  UNL1        0.0792
     14 C         142.3881  139.5116  163.6974 C.3     1  UNL1        0.1095
     15 N         142.5709  138.1367  161.4124 N.3     1  UNL1       -0.2699
     16 C         143.9856  137.7235  161.1329 C.3     1  UNL1        0.0897
     17 C         141.6179  138.3648  160.2768 C.3     1  UNL1        0.0897
     18 C         139.2966  141.2133  165.9914 C.3     1  UNL1        0.1407
     19 C         139.1520  141.9478  164.6916 C.3     1  UNL1        0.1666
     20 O         137.8768  142.6723  164.3772 O.3     1  UNL1       -0.3517
     21 C         138.7641  144.8501  165.4817 C.3     1  UNL1        0.0346
     22 C         137.7879  144.1561  164.5788 C.3     1  UNL1        0.1423
@<TRIPOS>BOND
     1    21    22    1
     2    22    20    1
     3    20    19    1
     4    19    18    1
     5    18     1    1
     6     1     2   ar
     7     2    10    1
     8    10    11    1
     9    11    12    1
    10    12    13    1
    11    13    15    1
    12    15    16    1
    13    15    17    1
    14    13    14    1
    15     2     3   ar
    16     3     4   ar
    17     4     5   ar
    18     5     6   ar
    19     6     7   ar
    20     7     8   ar
    21     8     9   ar
    22     9     1   ar
    23    14    10    1
    24     9     4   ar
@<TRIPOS>MOLECULE
*****
 22 24 0 0 0
SMALL
GASTEIGER

@<TRIPOS>ATOM
      1 N         141.7518  140.0031  166.8927 N.ar    1  UNL1       -0.2970
      2 C         140.4617  140.2719  166.1763 C.ar    1  UNL1        0.2012
      3 N         139.8090  141.4561  166.8256 N.ar    1  UNL1       -0.2136
      4 C         140.6957  141.9192  167.9433 C.ar    1  UNL1        0.0999
      5 C         140.5650  143.0426  168.9286 C.ar    1  UNL1        0.0207
      6 C         141.6350  143.2680  169.9553 C.ar    1  UNL1        0.0016
      7 C         142.8357  142.3700  169.9968 C.ar    1  UNL1        0.0016
      8 C         142.9665  141.2466  169.0115 C.ar    1  UNL1        0.0188
      9 C         141.8965  141.0212  167.9847 C.ar    1  UNL1        0.0799
     10 N         139.9194  139.4931  165.0146 N.pl3   1  UNL1       -0.2781
     11 C         139.4699  138.0624  165.0450 C.3     1  UNL1        0.0950
     12 C         139.0041  137.6934  163.6678 C.3     1  UNL1        0.0392
     13 C         139.1657  138.8962  162.7861 C.3     1  UNL1        0.0792
     14 C         139.7314  140.0084  163.6185 C.3     1  UNL1        0.1095
     15 N         138.8220  138.9731  161.3280 N.3     1  UNL1       -0.2699
     16 C         137.5368  139.6128  160.8931 C.3     1  UNL1        0.0897
     17 C         139.7635  138.4104  160.3049 C.3     1  UNL1        0.0897
     18 C         142.7263  138.9084  166.5732 C.3     1  UNL1        0.1407
     19 C         143.4561  138.9128  165.2628 C.3     1  UNL1        0.1666
     20 O         143.8768  140.2123  164.6428 O.3     1  UNL1       -0.3517
     21 C         145.7556  141.6890  163.6233 C.3     1  UNL1        0.0346
     22 C         145.2313  140.3381  164.0109 C.3     1  UNL1        0.1423
@<TRIPOS>BOND
     1    21    22    1
     2    22    20    1
     3    20    19    1
     4    19    18    1
     5    18     1    1
     6     1     2   ar
     7     2    10    1
     8    10    11    1
     9    11    12    1
    10    12    13    1
    11    13    15    1
    12    15    16    1
    13    15    17    1
    14    13    14    1
    15     2     3   ar
    16     3     4   ar
    17     4     5   ar
    18     5     6   ar
    19     6     7   ar
    20     7     8   ar
    21     8     9   ar
    22     9     1   ar
    23    14    10    1
    24     9     4   ar
@<TRIPOS>MOLECULE
*****
 22 24 0 0 0
SMALL
GASTEIGER

@<TRIPOS>ATOM
      1 N         138.5994  141.6014  163.8461 N.ar    1  UNL1       -0.2970
      2 C         139.6126  142.7074  163.8514 C.ar    1  UNL1        0.2012
      3 N         140.3615  142.6436  165.1496 N.ar    1  UNL1       -0.2136
      4 C         139.8111  141.4982  165.9464 C.ar    1  UNL1        0.0999
      5 C         140.1609  140.9584  167.3015 C.ar    1  UNL1        0.0207
      6 C         139.4216  139.7746  167.8510 C.ar    1  UNL1        0.0016
      7 C         138.3325  139.1305  167.0454 C.ar    1  UNL1        0.0016
      8 C         137.9827  139.6703  165.6903 C.ar    1  UNL1        0.0188
      9 C         138.7220  140.8541  165.1408 C.ar    1  UNL1        0.0799
     10 N         139.8375  143.7026  162.7518 N.pl3   1  UNL1       -0.2781
     11 C         139.5014  145.1635  162.8025 C.3     1  UNL1        0.0950
     12 C         139.8942  145.7753  161.4904 C.3     1  UNL1        0.0392
     13 C         140.4731  144.6924  160.6289 C.3     1  UNL1        0.0792
     14 C         140.4381  143.4114  161.4085 C.3     1  UNL1        0.1095
     15 N         140.9953  144.8610  159.2328 N.3     1  UNL1       -0.2699
     16 C         140.2983  145.7839  158.2776 C.3     1  UNL1        0.0897
     17 C         142.2145  144.1066  158.7920 C.3     1  UNL1        0.0897
     18 C         137.6331  141.2964  162.7401 C.3     1  UNL1        0.1407
     19 C         137.9044  140.1602  161.7992 C.3     1  UNL1        0.1666
     20 O         138.0348  138.7628  162.3285 O.3     1  UNL1       -0.3517
     21 C         139.9949  137.5388  163.5160 C.3     1  UNL1        0.0346
     22 C         139.3559  138.0555  162.2611 C.3     1  UNL1        0.1423
@<TRIPOS>BOND
     1    21    22    1
     2    22    20    1
     3    20    19    1
     4    19    18    1
     5    18     1    1
     6     1     2   ar
     7     2    10    1
     8    10    11    1
     9    11    12    1
    10    12    13    1
    11    13    15    1
    12    15    16    1
    13    15    17    1
    14    13    14    1
    15     2     3   ar
    16     3     4   ar
    17     4     5   ar
    18     5     6   ar
    19     6     7   ar
    20     7     8   ar
    21     8     9   ar
    22     9     1   ar
    23    14    10    1
    24     9     4   ar
@<TRIPOS>MOLECULE
*****
 22 24 0 0 0
SMALL
GASTEIGER

@<TRIPOS>ATOM
      1 N         142.4596  140.9350  166.1917 N.ar    1  UNL1       -0.2970
      2 C         142.8400  142.3832  166.1026 C.ar    1  UNL1        0.2012
      3 N         143.2037  142.8524  167.4801 N.ar    1  UNL1       -0.2136
      4 C         143.0480  141.6943  168.4206 C.ar    1  UNL1        0.0999
      5 C         143.2657  141.5656  169.8991 C.ar    1  UNL1        0.0207
      6 C         143.0234  140.2519  170.5813 C.ar    1  UNL1        0.0016
      7 C         142.5635  139.0669  169.7850 C.ar    1  UNL1        0.0016
      8 C         142.3459  139.1955  168.3065 C.ar    1  UNL1        0.0188
      9 C         142.5882  140.5092  167.6243 C.ar    1  UNL1        0.0799
     10 N         142.8542  143.2159  164.8551 N.pl3   1  UNL1       -0.2781
     11 C         144.0625  143.8497  164.2318 C.3     1  UNL1        0.0950
     12 C         143.6177  144.5866  163.0033 C.3     1  UNL1        0.0392
     13 C         142.1346  144.4082  162.8673 C.3     1  UNL1        0.0792
     14 C         141.6627  143.5611  164.0118 C.3     1  UNL1        0.1095
     15 N         141.2743  144.9771  161.7781 N.3     1  UNL1       -0.2699
     16 C         140.1077  145.8540  162.1246 C.3     1  UNL1        0.0897
     17 C         141.5806  144.6690  160.3424 C.3     1  UNL1        0.0897
     18 C         142.0266  140.0652  165.0489 C.3     1  UNL1        0.1407
     19 C         142.9295  138.9755  164.5517 C.3     1  UNL1        0.1666
     20 O         144.4180  139.1302  164.6530 O.3     1  UNL1       -0.3517
     21 C         144.7129  140.6269  162.5499 C.3     1  UNL1        0.0346
     22 C         145.1035  140.2657  163.9524 C.3     1  UNL1        0.1423
@<TRIPOS>BOND
     1    21    22    1
     2    22    20    1
     3    20    19    1
     4    19    18    1
     5    18     1    1
     6     1     2   ar
     7     2    10    1
     8    10    11    1
     9    11    12    1
    10    12    13    1
    11    13    15    1
    12    15    16    1
    13    15    17    1
    14    13    14    1
    15     2     3   ar
    16     3     4   ar
    17     4     5   ar
    18     5     6   ar
    19     6     7   ar
    20     7     8   ar
    21     8     9   ar
    22     9     1   ar
    23    14    10    1
    24     9     4   ar
@<TRIPOS>MOLECULE
*****
 22 24 0 0 0
SMALL
GASTEIGER

@<TRIPOS>ATOM
      1 N         140.5881  141.3459  166.1665 N.ar    1  UNL1       -0.2970
      2 C         139.8744  140.0500  165.9188 C.ar    1  UNL1        0.2012
      3 N         139.2638  139.6024  167.2137 N.ar    1  UNL1       -0.2136
      4 C         139.6000  140.6216  168.2616 C.ar    1  UNL1        0.0999
      5 C         139.2667  140.7077  169.7215 C.ar    1  UNL1        0.0207
      6 C         139.7518  141.8714  170.5342 C.ar    1  UNL1        0.0016
      7 C         140.5703  142.9490  169.8870 C.ar    1  UNL1        0.0016
      8 C         140.9036  142.8629  168.4270 C.ar    1  UNL1        0.0188
      9 C         140.4185  141.6992  167.6144 C.ar    1  UNL1        0.0799
     10 N         139.7868  139.3284  164.6067 N.pl3   1  UNL1       -0.2781
     11 C         140.3403  137.9660  164.3110 C.3     1  UNL1        0.0950
     12 C         140.0259  137.6381  162.8815 C.3     1  UNL1        0.0392
     13 C         139.2780  138.7979  162.2936 C.3     1  UNL1        0.0792
     14 C         139.1302  139.8425  163.3599 C.3     1  UNL1        0.1095
     15 N         138.7675  138.8959  160.8866 N.3     1  UNL1       -0.2699
     16 C         137.4246  139.5073  160.6168 C.3     1  UNL1        0.0897
     17 C         139.5999  138.3823  159.7493 C.3     1  UNL1        0.0897
     18 C         141.3395  142.1477  165.1454 C.3     1  UNL1        0.1407
     19 C         140.6048  143.1058  164.2554 C.3     1  UNL1        0.1666
     20 O         140.2473  144.4731  164.7582 O.3     1  UNL1       -0.3517
     21 C         137.6976  143.9815  164.6711 C.3     1  UNL1        0.0346
     22 C         138.8527  144.7570  165.2319 C.3     1  UNL1        0.1423
@<TRIPOS>BOND
     1    21    22    1
     2    22    20    1
     3    20    19    1
     4    19    18    1
     5    18     1    1
     6     1     2   ar
     7     2    10    1
     8    10    11    1
     9    11    12    1
    10    12    13    1
    11    13    15    1
    12    15    16    1
    13    15    17    1
    14    13    14    1
    15     2     3   ar
    16     3     4   ar
    17     4     5   ar
    18     5     6   ar
    19     6     7   ar
    20     7     8   ar
    21     8     9   ar
    22     9     1   ar
    23    14    10    1
    24     9     4   ar
@<TRIPOS>MOLECULE
*****
 22 24 0 0 0
SMALL
GASTEIGER

@<TRIPOS>ATOM
      1 N         140.6467  141.2853  166.2694 N.ar    1  UNL1       -0.2970
      2 C         139.8497  140.0366  166.0335 C.ar    1  UNL1        0.2012
      3 N         139.2272  139.6310  167.3366 N.ar    1  UNL1       -0.2136
      4 C         139.6394  140.6291  168.3778 C.ar    1  UNL1        0.0999
      5 C         139.3292  140.7390  169.8412 C.ar    1  UNL1        0.0207
      6 C         139.8964  141.8713  170.6451 C.ar    1  UNL1        0.0016
      7 C         140.7736  142.8937  169.9855 C.ar    1  UNL1        0.0016
      8 C         141.0838  142.7838  168.5220 C.ar    1  UNL1        0.0188
      9 C         140.5167  141.6515  167.7182 C.ar    1  UNL1        0.0799
     10 N         139.7014  139.3194  164.7245 N.pl3   1  UNL1       -0.2781
     11 C         140.0571  137.8866  164.4589 C.3     1  UNL1        0.0950
     12 C         139.7468  137.5907  163.0214 C.3     1  UNL1        0.0392
     13 C         139.1993  138.8407  162.3987 C.3     1  UNL1        0.0792
     14 C         139.1712  139.9090  163.4512 C.3     1  UNL1        0.1095
     15 N         138.7575  138.9952  160.9736 N.3     1  UNL1       -0.2699
     16 C         137.4808  139.7167  160.6582 C.3     1  UNL1        0.0897
     17 C         139.5924  138.4282  159.8639 C.3     1  UNL1        0.0897
     18 C         141.4352  142.0361  165.2376 C.3     1  UNL1        0.1407
     19 C         142.7885  141.5412  164.8214 C.3     1  UNL1        0.1666
     20 O         142.9431  140.1553  164.2686 O.3     1  UNL1       -0.3517
     21 C         143.2812  138.6259  166.3414 C.3     1  UNL1        0.0346
     22 C         143.7548  139.1371  165.0131 C.3     1  UNL1        0.1423
@<TRIPOS>BOND
     1    21    22    1
     2    22    20    1
     3    20    19    1
     4    19    18    1
     5    18     1    1
     6     1     2   ar
     7     2    10    1
     8    10    11    1
     9    11    12    1
    10    12    13    1
    11    13    15    1
    12    15    16    1
    13    15    17    1
    14    13    14    1
    15     2     3   ar
    16     3     4   ar
    17     4     5   ar
    18     5     6   ar
    19     6     7   ar
    20     7     8   ar
    21     8     9   ar
    22     9     1   ar
    23    14    10    1
    24     9     4   ar
@<TRIPOS>MOLECULE
*****
 22 24 0 0 0
SMALL
GASTEIGER

@<TRIPOS>ATOM
      1 N         141.2767  141.8225  166.4715 N.ar    1  UNL1       -0.2970
      2 C         140.0542  140.9737  166.2844 C.ar    1  UNL1        0.2012
      3 N         139.8481  140.1754  167.5375 N.ar    1  UNL1       -0.2136
      4 C         140.9432  140.5307  168.4990 C.ar    1  UNL1        0.0999
      5 C         141.2505  140.0589  169.8892 C.ar    1  UNL1        0.0207
      6 C         142.4408  140.6050  170.6206 C.ar    1  UNL1        0.0016
      7 C         143.3237  141.6229  169.9618 C.ar    1  UNL1        0.0016
      8 C         143.0165  142.0948  168.5715 C.ar    1  UNL1        0.0188
      9 C         141.8262  141.5487  167.8401 C.ar    1  UNL1        0.0799
     10 N         139.1895  140.9308  165.0595 N.pl3   1  UNL1       -0.2781
     11 C         138.0999  141.9024  164.7149 C.3     1  UNL1        0.0950
     12 C         137.4997  141.4809  163.4064 C.3     1  UNL1        0.0392
     13 C         138.2183  140.2488  162.9423 C.3     1  UNL1        0.0792
     14 C         139.2627  139.9089  163.9639 C.3     1  UNL1        0.1095
     15 N         137.9413  139.4899  161.6785 N.3     1  UNL1       -0.2699
     16 C         137.7241  138.0065  161.7267 C.3     1  UNL1        0.0897
     17 C         137.8814  140.2144  160.3664 C.3     1  UNL1        0.0897
     18 C         141.8493  142.7773  165.4663 C.3     1  UNL1        0.1407
     19 C         142.9775  142.3440  164.5780 C.3     1  UNL1        0.1666
     20 O         143.9143  141.2627  165.0288 O.3     1  UNL1       -0.3517
     21 C         143.3376  138.8539  165.8131 C.3     1  UNL1        0.0346
     22 C         143.6148  139.8285  164.7071 C.3     1  UNL1        0.1423
@<TRIPOS>BOND
     1    21    22    1
     2    22    20    1
     3    20    19    1
     4    19    18    1
     5    18     1    1
     6     1     2   ar
     7     2    10    1
     8    10    11    1
     9    11    12    1
    10    12    13    1
    11    13    15    1
    12    15    16    1
    13    15    17    1
    14    13    14    1
    15     2     3   ar
    16     3     4   ar
    17     4     5   ar
    18     5     6   ar
    19     6     7   ar
    20     7     8   ar
    21     8     9   ar
    22     9     1   ar
    23    14    10    1
    24     9     4   ar
@<TRIPOS>MOLECULE
*****
 22 24 0 0 0
SMALL
GASTEIGER

@<TRIPOS>ATOM
      1 N         142.2969  141.5288  165.9977 N.ar    1  UNL1       -0.2970
      2 C         140.9671  141.6974  165.3245 C.ar    1  UNL1        0.2012
      3 N         140.0348  142.3552  166.2983 N.ar    1  UNL1       -0.2136
      4 C         140.7885  142.5931  167.5732 C.ar    1  UNL1        0.0999
      5 C         140.3823  143.2088  168.8793 C.ar    1  UNL1        0.0207
      6 C         141.3742  143.3137  169.9996 C.ar    1  UNL1        0.0016
      7 C         142.7722  142.8029  169.8138 C.ar    1  UNL1        0.0016
      8 C         143.1784  142.1872  168.5078 C.ar    1  UNL1        0.0188
      9 C         142.1865  142.0823  167.3875 C.ar    1  UNL1        0.0799
     10 N         140.6289  141.2814  163.9236 N.pl3   1  UNL1       -0.2781
     11 C         141.0276  142.0013  162.6695 C.3     1  UNL1        0.0950
     12 C         140.4778  141.2372  161.5017 C.3     1  UNL1        0.0392
     13 C         139.7393  140.0450  162.0340 C.3     1  UNL1        0.0792
     14 C         139.8328  140.0723  163.5308 C.3     1  UNL1        0.1095
     15 N         139.0317  139.0077  161.2135 N.3     1  UNL1       -0.2699
     16 C         137.7811  138.3639  161.7348 C.3     1  UNL1        0.0897
     17 C         139.5746  138.6140  159.8718 C.3     1  UNL1        0.0897
     18 C         143.5221  140.9144  165.3881 C.3     1  UNL1        0.1407
     19 C         144.4518  141.7548  164.5640 C.3     1  UNL1        0.1666
     20 O         144.7099  143.1823  164.9457 O.3     1  UNL1       -0.3517
     21 C         143.9478  144.6454  162.9386 C.3     1  UNL1        0.0346
     22 C         143.8469  144.2754  164.3888 C.3     1  UNL1        0.1423
@<TRIPOS>BOND
     1    21    22    1
     2    22    20    1
     3    20    19    1
     4    19    18    1
     5    18     1    1
     6     1     2   ar
     7     2    10    1
     8    10    11    1
     9    11    12    1
    10    12    13    1
    11    13    15    1
    12    15    16    1
    13    15    17    1
    14    13    14    1
    15     2     3   ar
    16     3     4   ar
    17     4     5   ar
    18     5     6   ar
    19     6     7   ar
    20     7     8   ar
    21     8     9   ar
    22     9     1   ar
    23    14    10    1
    24     9     4   ar
@<TRIPOS>MOLECULE
*****
 22 24 0 0 0
SMALL
GASTEIGER

@<TRIPOS>ATOM
      1 N         142.3300  141.3947  166.7401 N.ar    1  UNL1       -0.2970
      2 C         142.8051  140.0241  166.3585 C.ar    1  UNL1        0.2012
      3 N         142.9588  139.2202  167.6155 N.ar    1  UNL1       -0.2136
      4 C         142.5788  140.0940  168.7740 C.ar    1  UNL1        0.0999
      5 C         142.5365  139.8395  170.2516 C.ar    1  UNL1        0.0207
      6 C         142.1055  140.9289  171.1882 C.ar    1  UNL1        0.0016
      7 C         141.7169  142.2729  170.6472 C.ar    1  UNL1        0.0016
      8 C         141.7592  142.5274  169.1696 C.ar    1  UNL1        0.0188
      9 C         142.1902  141.4379  168.2330 C.ar    1  UNL1        0.0799
     10 N         143.0784  139.5420  164.9646 N.pl3   1  UNL1       -0.2781
     11 C         144.4232  139.4706  164.3041 C.3     1  UNL1        0.0950
     12 C         144.2308  138.9312  162.9178 C.3     1  UNL1        0.0392
     13 C         142.7670  138.6691  162.7214 C.3     1  UNL1        0.0792
     14 C         142.0548  139.0466  163.9864 C.3     1  UNL1        0.1095
     15 N         142.1276  138.1250  161.4784 N.3     1  UNL1       -0.2699
     16 C         140.6333  138.1102  161.3484 C.3     1  UNL1        0.0897
     17 C         142.9826  137.5958  160.3653 C.3     1  UNL1        0.0897
     18 C         142.0449  142.5240  165.7949 C.3     1  UNL1        0.1407
     19 C         140.6452  142.7621  165.3113 C.3     1  UNL1        0.1666
     20 O         139.7420  143.6973  166.0594 O.3     1  UNL1       -0.3517
     21 C         137.8702  144.0920  164.3014 C.3     1  UNL1        0.0346
     22 C         138.8424  144.6329  165.3076 C.3     1  UNL1        0.1423
@<TRIPOS>BOND
     1    21    22    1
     2    22    20    1
     3    20    19    1
     4    19    18    1
     5    18     1    1
     6     1     2   ar
     7     2    10    1
     8    10    11    1
     9    11    12    1
    10    12    13    1
    11    13    15    1
    12    15    16    1
    13    15    17    1
    14    13    14    1
    15     2     3   ar
    16     3     4   ar
    17     4     5   ar
    18     5     6   ar
    19     6     7   ar
    20     7     8   ar
    21     8     9   ar
    22     9     1   ar
    23    14    10    1
    24     9     4   ar
