@<TRIPOS>MOLECULE
*****
 29 32 0 0 0
SMALL
GASTEIGER

@<TRIPOS>ATOM
      1 O         139.5123  140.0174  167.4740 O.3     1  UNL1       -0.3793
      2 C         139.8437  140.8887  166.2988 C.3     1  UNL1        0.1422
      3 H         139.0537  139.2200  167.1661 H       1  UNL1        0.2108
      4 C         139.4594  140.4585  164.9141 C.ar    1  UNL1        0.0226
      5 C         138.0702  140.7123  164.4084 C.ar    1  UNL1        0.0012
      6 C         137.6859  140.2821  163.0238 C.ar    1  UNL1        0.0204
      7 C         138.6907  139.5981  162.1449 C.ar    1  UNL1        0.0988
      8 N         140.0799  139.3443  162.6507 N.ar    1  UNL1       -0.2441
      9 C         140.4642  139.7745  164.0353 C.ar    1  UNL1        0.0796
     10 C         141.8534  139.5207  164.5410 C.ar    1  UNL1        0.0183
     11 C         142.0903  138.4750  165.5900 C.ar    1  UNL1        0.0015
     12 C         143.4794  138.2212  166.0957 C.ar    1  UNL1        0.0009
     13 C         144.6317  139.0130  165.5525 C.ar    1  UNL1        0.0114
     14 C         144.3948  140.0587  164.5035 C.ar    1  UNL1        0.0577
     15 CL        145.5472  140.8506  163.9603 Cl      1  UNL1       -0.0822
     16 C         143.0057  140.3125  163.9978 C.ar    1  UNL1        0.0129
     17 C         140.5594  142.1902  166.5083 C.3     1  UNL1        0.0787
     18 C         140.5515  143.2325  165.4297 C.ar    1  UNL1        0.0035
     19 C         141.7925  143.4914  164.6277 C.ar    1  UNL1       -0.0007
     20 C         141.7846  144.5337  163.5491 C.ar    1  UNL1        0.0204
     21 C         140.5357  145.3173  163.2724 C.ar    1  UNL1        0.0989
     22 N         139.2948  145.0584  164.0744 N.ar    1  UNL1       -0.2426
     23 C         139.3027  144.0160  165.1530 C.ar    1  UNL1        0.0950
     24 C         141.2831  142.4493  167.7964 C.ar    1  UNL1        0.0035
     25 C         142.7055  142.0024  167.9606 C.ar    1  UNL1       -0.0007
     26 C         143.4292  142.2615  169.2486 C.ar    1  UNL1        0.0204
     27 C         142.7304  142.9675  170.3725 C.ar    1  UNL1        0.0989
     28 N         141.3080  143.4145  170.2084 N.ar    1  UNL1       -0.2426
     29 C         140.5843  143.1553  168.9203 C.ar    1  UNL1        0.0950
@<TRIPOS>BOND
     1     1     2    1
     2     2     4    1
     3     4     5   ar
     4     5     6   ar
     5     6     7   ar
     6     7     8   ar
     7     8     9   ar
     8     9    10    1
     9    10    11   ar
    10    11    12   ar
    11    12    13   ar
    12    13    14   ar
    13    14    15    1
    14    14    16   ar
    15     2    17    1
    16    17    18    1
    17    18    19   ar
    18    19    20   ar
    19    20    21   ar
    20    21    22   ar
    21    22    23   ar
    22    17    24    1
    23    24    25   ar
    24    25    26   ar
    25    26    27   ar
    26    27    28   ar
    27    28    29   ar
    28     9     4   ar
    29    16    10   ar
    30    23    18   ar
    31    29    24   ar
    32     1     3    1
@<TRIPOS>MOLECULE
*****
 29 32 0 0 0
SMALL
GASTEIGER

@<TRIPOS>ATOM
      1 O         141.4557  142.2927  167.5729 O.3     1  UNL1       -0.3793
      2 C         141.2470  141.3094  166.4596 C.3     1  UNL1        0.1422
      3 H         142.3941  142.3094  167.8179 H       1  UNL1        0.2108
      4 C         142.4117  140.5403  165.9100 C.ar    1  UNL1        0.0226
      5 C         142.8287  139.2503  166.5520 C.ar    1  UNL1        0.0012
      6 C         143.9934  138.4813  166.0025 C.ar    1  UNL1        0.0204
      7 C         144.7411  139.0021  164.8110 C.ar    1  UNL1        0.0988
      8 N         144.3241  140.2921  164.1691 N.ar    1  UNL1       -0.2441
      9 C         143.1594  141.0612  164.7186 C.ar    1  UNL1        0.0796
     10 C         142.7425  142.3512  164.0766 C.ar    1  UNL1        0.0183
     11 C         143.2600  143.6550  164.6079 C.ar    1  UNL1        0.0015
     12 C         142.8430  144.9449  163.9659 C.ar    1  UNL1        0.0009
     13 C         141.9085  144.9311  162.7927 C.ar    1  UNL1        0.0114
     14 C         141.3910  143.6274  162.2615 C.ar    1  UNL1        0.0577
     15 CL        140.4564  143.6135  161.0882 Cl      1  UNL1       -0.0822
     16 C         141.8079  142.3374  162.9034 C.ar    1  UNL1        0.0129
     17 C         139.8736  141.0952  165.8958 C.3     1  UNL1        0.0787
     18 C         139.1782  139.7809  166.0936 C.ar    1  UNL1        0.0035
     19 C         139.3898  138.6654  165.1133 C.ar    1  UNL1       -0.0007
     20 C         138.6945  137.3511  165.3112 C.ar    1  UNL1        0.0204
     21 C         137.7875  137.1524  166.4894 C.ar    1  UNL1        0.0989
     22 N         137.5759  138.2679  167.4696 N.ar    1  UNL1       -0.2426
     23 C         138.2713  139.5821  167.2717 C.ar    1  UNL1        0.0950
     24 C         139.1955  142.1953  165.1340 C.ar    1  UNL1        0.0035
     25 C         139.4551  143.6278  165.4950 C.ar    1  UNL1       -0.0007
     26 C         138.7771  144.7279  164.7333 C.ar    1  UNL1        0.0204
     27 C         137.8395  144.3953  163.6108 C.ar    1  UNL1        0.0989
     28 N         137.5799  142.9627  163.2498 N.ar    1  UNL1       -0.2426
     29 C         138.2579  141.8627  164.0115 C.ar    1  UNL1        0.0950
@<TRIPOS>BOND
     1     1     2    1
     2     2     4    1
     3     4     5   ar
     4     5     6   ar
     5     6     7   ar
     6     7     8   ar
     7     8     9   ar
     8     9    10    1
     9    10    11   ar
    10    11    12   ar
    11    12    13   ar
    12    13    14   ar
    13    14    15    1
    14    14    16   ar
    15     2    17    1
    16    17    18    1
    17    18    19   ar
    18    19    20   ar
    19    20    21   ar
    20    21    22   ar
    21    22    23   ar
    22    17    24    1
    23    24    25   ar
    24    25    26   ar
    25    26    27   ar
    26    27    28   ar
    27    28    29   ar
    28     9     4   ar
    29    16    10   ar
    30    23    18   ar
    31    29    24   ar
    32     1     3    1
@<TRIPOS>MOLECULE
*****
 29 32 0 0 0
SMALL
GASTEIGER

@<TRIPOS>ATOM
      1 O         139.3324  140.4336  166.9911 O.3     1  UNL1       -0.3793
      2 C         140.2474  141.4454  166.3674 C.3     1  UNL1        0.1422
      3 H         138.4480  140.5134  166.6009 H       1  UNL1        0.2108
      4 C         139.7287  142.3746  165.3102 C.ar    1  UNL1        0.0226
      5 C         139.4861  143.8189  165.6344 C.ar    1  UNL1        0.0012
      6 C         138.9675  144.7481  164.5772 C.ar    1  UNL1        0.0204
      7 C         138.6913  144.2329  163.1958 C.ar    1  UNL1        0.0988
      8 N         138.9339  142.7886  162.8716 N.ar    1  UNL1       -0.2441
      9 C         139.4525  141.8594  163.9288 C.ar    1  UNL1        0.0796
     10 C         139.6951  140.4151  163.6045 C.ar    1  UNL1        0.0183
     11 C         138.6428  139.3908  163.9103 C.ar    1  UNL1        0.0015
     12 C         138.8854  137.9465  163.5861 C.ar    1  UNL1        0.0009
     13 C         140.1802  137.5265  162.9561 C.ar    1  UNL1        0.0114
     14 C         141.2324  138.5507  162.6503 C.ar    1  UNL1        0.0577
     15 CL        142.5273  138.1307  162.0202 Cl      1  UNL1       -0.0822
     16 C         140.9899  139.9951  162.9745 C.ar    1  UNL1        0.0129
     17 C         141.6810  141.5282  166.8009 C.3     1  UNL1        0.0787
     18 C         142.7656  140.9994  165.9099 C.ar    1  UNL1        0.0035
     19 C         143.1072  139.5389  165.9298 C.ar    1  UNL1       -0.0007
     20 C         144.1918  139.0101  165.0388 C.ar    1  UNL1        0.0204
     21 C         144.9350  139.9418  164.1279 C.ar    1  UNL1        0.0989
     22 N         144.5934  141.4022  164.1080 N.ar    1  UNL1       -0.2426
     23 C         143.5087  141.9310  164.9990 C.ar    1  UNL1        0.0950
     24 C         142.0299  142.1397  168.1254 C.ar    1  UNL1        0.0035
     25 C         143.4221  142.0090  168.6683 C.ar    1  UNL1       -0.0007
     26 C         143.7711  142.6205  169.9928 C.ar    1  UNL1        0.0204
     27 C         142.7280  143.3627  170.7743 C.ar    1  UNL1        0.0989
     28 N         141.3358  143.4933  170.2315 N.ar    1  UNL1       -0.2426
     29 C         140.9867  142.8818  168.9070 C.ar    1  UNL1        0.0950
@<TRIPOS>BOND
     1     1     2    1
     2     2     4    1
     3     4     5   ar
     4     5     6   ar
     5     6     7   ar
     6     7     8   ar
     7     8     9   ar
     8     9    10    1
     9    10    11   ar
    10    11    12   ar
    11    12    13   ar
    12    13    14   ar
    13    14    15    1
    14    14    16   ar
    15     2    17    1
    16    17    18    1
    17    18    19   ar
    18    19    20   ar
    19    20    21   ar
    20    21    22   ar
    21    22    23   ar
    22    17    24    1
    23    24    25   ar
    24    25    26   ar
    25    26    27   ar
    26    27    28   ar
    27    28    29   ar
    28     9     4   ar
    29    16    10   ar
    30    23    18   ar
    31    29    24   ar
    32     1     3    1
@<TRIPOS>MOLECULE
*****
 29 32 0 0 0
SMALL
GASTEIGER

@<TRIPOS>ATOM
      1 O         139.3235  140.4283  166.9828 O.3     1  UNL1       -0.3793
      2 C         140.2410  141.4393  166.3615 C.3     1  UNL1        0.1422
      3 H         138.4391  140.5117  166.5930 H       1  UNL1        0.2108
      4 C         139.7245  142.3728  165.3070 C.ar    1  UNL1        0.0226
      5 C         139.4856  143.8168  165.6354 C.ar    1  UNL1        0.0012
      6 C         138.9691  144.7503  164.5810 C.ar    1  UNL1        0.0204
      7 C         138.6916  144.2398  163.1982 C.ar    1  UNL1        0.0988
      8 N         138.9305  142.7958  162.8697 N.ar    1  UNL1       -0.2441
      9 C         139.4470  141.8623  163.9241 C.ar    1  UNL1        0.0796
     10 C         139.6859  140.4184  163.5957 C.ar    1  UNL1        0.0183
     11 C         138.6320  139.3955  163.9007 C.ar    1  UNL1        0.0015
     12 C         138.8710  137.9515  163.5723 C.ar    1  UNL1        0.0009
     13 C         140.1638  137.5304  162.9388 C.ar    1  UNL1        0.0114
     14 C         141.2176  138.5533  162.6338 C.ar    1  UNL1        0.0577
     15 CL        142.5105  138.1322  162.0003 Cl      1  UNL1       -0.0822
     16 C         140.9787  139.9973  162.9622 C.ar    1  UNL1        0.0129
     17 C         141.6750  141.5169  166.7947 C.3     1  UNL1        0.0787
     18 C         142.0264  142.1272  168.1191 C.ar    1  UNL1        0.0035
     19 C         143.4195  141.9952  168.6596 C.ar    1  UNL1       -0.0007
     20 C         143.7709  142.6055  169.9840 C.ar    1  UNL1        0.0204
     21 C         142.7293  143.3477  170.7679 C.ar    1  UNL1        0.0989
     22 N         141.3364  143.4796  170.2273 N.ar    1  UNL1       -0.2426
     23 C         140.9850  142.8694  168.9029 C.ar    1  UNL1        0.0950
     24 C         142.7576  140.9842  165.9034 C.ar    1  UNL1        0.0035
     25 C         143.0998  139.5240  165.9297 C.ar    1  UNL1       -0.0007
     26 C         144.1824  138.9912  165.0385 C.ar    1  UNL1        0.0204
     27 C         144.9226  139.9187  164.1210 C.ar    1  UNL1        0.0989
     28 N         144.5804  141.3789  164.0947 N.ar    1  UNL1       -0.2426
     29 C         143.4978  141.9116  164.9859 C.ar    1  UNL1        0.0950
@<TRIPOS>BOND
     1     1     2    1
     2     2     4    1
     3     4     5   ar
     4     5     6   ar
     5     6     7   ar
     6     7     8   ar
     7     8     9   ar
     8     9    10    1
     9    10    11   ar
    10    11    12   ar
    11    12    13   ar
    12    13    14   ar
    13    14    15    1
    14    14    16   ar
    15     2    17    1
    16    17    18    1
    17    18    19   ar
    18    19    20   ar
    19    20    21   ar
    20    21    22   ar
    21    22    23   ar
    22    17    24    1
    23    24    25   ar
    24    25    26   ar
    25    26    27   ar
    26    27    28   ar
    27    28    29   ar
    28     9     4   ar
    29    16    10   ar
    30    23    18   ar
    31    29    24   ar
    32     1     3    1
@<TRIPOS>MOLECULE
*****
 29 32 0 0 0
SMALL
GASTEIGER

@<TRIPOS>ATOM
      1 O         143.1804  138.9828  167.4062 O.3     1  UNL1       -0.3793
      2 C         142.7472  140.3481  166.9610 C.3     1  UNL1        0.1422
      3 H         143.0694  138.9055  168.3667 H       1  UNL1        0.2108
      4 C         142.2403  141.3391  167.9666 C.ar    1  UNL1        0.0226
      5 C         143.1948  141.9957  168.9194 C.ar    1  UNL1        0.0012
      6 C         142.6881  142.9867  169.9249 C.ar    1  UNL1        0.0204
      7 C         141.2268  143.3210  169.9778 C.ar    1  UNL1        0.0988
      8 N         140.2723  142.6643  169.0250 N.ar    1  UNL1       -0.2441
      9 C         140.7790  141.6734  168.0195 C.ar    1  UNL1        0.0796
     10 C         139.8245  141.0168  167.0667 C.ar    1  UNL1        0.0183
     11 C         139.4574  141.7000  165.7829 C.ar    1  UNL1        0.0015
     12 C         138.5028  141.0434  164.8301 C.ar    1  UNL1        0.0009
     13 C         137.9155  139.7035  165.1612 C.ar    1  UNL1        0.0114
     14 C         138.2826  139.0203  166.4451 C.ar    1  UNL1        0.0577
     15 CL        137.6952  137.6803  166.7763 Cl      1  UNL1       -0.0822
     16 C         139.2371  139.6769  167.3978 C.ar    1  UNL1        0.0129
     17 C         142.8207  140.7225  165.5104 C.3     1  UNL1        0.0787
     18 C         142.6165  139.6768  164.4546 C.ar    1  UNL1        0.0035
     19 C         141.4233  138.7698  164.5182 C.ar    1  UNL1       -0.0007
     20 C         141.2191  137.7241  163.4624 C.ar    1  UNL1        0.0204
     21 C         142.2080  137.5853  162.3431 C.ar    1  UNL1        0.0989
     22 N         143.4010  138.4922  162.2795 N.ar    1  UNL1       -0.2426
     23 C         143.6053  139.5379  163.3353 C.ar    1  UNL1        0.0950
     24 C         143.0986  142.1427  165.1155 C.ar    1  UNL1        0.0035
     25 C         144.3212  142.8399  165.6343 C.ar    1  UNL1       -0.0007
     26 C         144.5991  144.2600  165.2395 C.ar    1  UNL1        0.0204
     27 C         143.6544  144.9830  164.3258 C.ar    1  UNL1        0.0989
     28 N         142.4318  144.2858  163.8070 N.ar    1  UNL1       -0.2426
     29 C         142.1539  142.8657  164.2018 C.ar    1  UNL1        0.0950
@<TRIPOS>BOND
     1     1     2    1
     2     2     4    1
     3     4     5   ar
     4     5     6   ar
     5     6     7   ar
     6     7     8   ar
     7     8     9   ar
     8     9    10    1
     9    10    11   ar
    10    11    12   ar
    11    12    13   ar
    12    13    14   ar
    13    14    15    1
    14    14    16   ar
    15     2    17    1
    16    17    18    1
    17    18    19   ar
    18    19    20   ar
    19    20    21   ar
    20    21    22   ar
    21    22    23   ar
    22    17    24    1
    23    24    25   ar
    24    25    26   ar
    25    26    27   ar
    26    27    28   ar
    27    28    29   ar
    28     9     4   ar
    29    16    10   ar
    30    23    18   ar
    31    29    24   ar
    32     1     3    1
@<TRIPOS>MOLECULE
*****
 29 32 0 0 0
SMALL
GASTEIGER

@<TRIPOS>ATOM
      1 O         143.1631  138.9762  167.4260 O.3     1  UNL1       -0.3793
      2 C         142.7427  140.3444  166.9776 C.3     1  UNL1        0.1422
      3 H         143.0521  138.9024  168.3868 H       1  UNL1        0.2108
      4 C         142.2460  141.3428  167.9809 C.ar    1  UNL1        0.0226
      5 C         143.2066  141.9889  168.9348 C.ar    1  UNL1        0.0012
      6 C         142.7100  142.9872  169.9381 C.ar    1  UNL1        0.0204
      7 C         141.2528  143.3395  169.9876 C.ar    1  UNL1        0.0988
      8 N         140.2922  142.6934  169.0337 N.ar    1  UNL1       -0.2441
      9 C         140.7888  141.6951  168.0304 C.ar    1  UNL1        0.0796
     10 C         139.8282  141.0490  167.0766 C.ar    1  UNL1        0.0183
     11 C         139.4439  141.7516  165.8083 C.ar    1  UNL1        0.0015
     12 C         138.4833  141.1055  164.8544 C.ar    1  UNL1        0.0009
     13 C         137.9071  139.7568  165.1688 C.ar    1  UNL1        0.0114
     14 C         138.2914  139.0542  166.4371 C.ar    1  UNL1        0.0577
     15 CL        137.7152  137.7054  166.7516 Cl      1  UNL1       -0.0822
     16 C         139.2520  139.7003  167.3910 C.ar    1  UNL1        0.0129
     17 C         142.8189  140.7144  165.5260 C.3     1  UNL1        0.0787
     18 C         143.0976  142.1333  165.1272 C.ar    1  UNL1        0.0035
     19 C         144.3228  142.8298  165.6408 C.ar    1  UNL1       -0.0007
     20 C         144.6015  144.2488  165.2420 C.ar    1  UNL1        0.0204
     21 C         143.6550  144.9711  164.3297 C.ar    1  UNL1        0.0989
     22 N         142.4298  144.2746  163.8161 N.ar    1  UNL1       -0.2426
     23 C         142.1511  142.8557  164.2149 C.ar    1  UNL1        0.0950
     24 C         142.6164  139.6654  164.4730 C.ar    1  UNL1        0.0035
     25 C         141.3653  138.8379  164.4696 C.ar    1  UNL1       -0.0007
     26 C         141.1628  137.7889  163.4167 C.ar    1  UNL1        0.0204
     27 C         142.2114  137.5674  162.3672 C.ar    1  UNL1        0.0989
     28 N         143.4625  138.3949  162.3707 N.ar    1  UNL1       -0.2426
     29 C         143.6650  139.4439  163.4235 C.ar    1  UNL1        0.0950
@<TRIPOS>BOND
     1     1     2    1
     2     2     4    1
     3     4     5   ar
     4     5     6   ar
     5     6     7   ar
     6     7     8   ar
     7     8     9   ar
     8     9    10    1
     9    10    11   ar
    10    11    12   ar
    11    12    13   ar
    12    13    14   ar
    13    14    15    1
    14    14    16   ar
    15     2    17    1
    16    17    18    1
    17    18    19   ar
    18    19    20   ar
    19    20    21   ar
    20    21    22   ar
    21    22    23   ar
    22    17    24    1
    23    24    25   ar
    24    25    26   ar
    25    26    27   ar
    26    27    28   ar
    27    28    29   ar
    28     9     4   ar
    29    16    10   ar
    30    23    18   ar
    31    29    24   ar
    32     1     3    1
@<TRIPOS>MOLECULE
*****
 29 32 0 0 0
SMALL
GASTEIGER

@<TRIPOS>ATOM
      1 O         137.9486  139.5088  166.5697 O.3     1  UNL1       -0.3793
      2 C         139.2169  139.7532  165.8071 C.3     1  UNL1        0.1422
      3 H         137.2702  139.1654  165.9673 H       1  UNL1        0.2108
      4 C         139.2759  139.4624  164.3367 C.ar    1  UNL1        0.0226
      5 C         139.3508  138.0437  163.8552 C.ar    1  UNL1        0.0012
      6 C         139.4097  137.7529  162.3849 C.ar    1  UNL1        0.0204
      7 C         139.3938  138.8807  161.3961 C.ar    1  UNL1        0.0988
      8 N         139.3189  140.2993  161.8776 N.ar    1  UNL1       -0.2441
      9 C         139.2600  140.5902  163.3479 C.ar    1  UNL1        0.0796
     10 C         139.1851  142.0088  163.8294 C.ar    1  UNL1        0.0183
     11 C         137.9240  142.5216  164.4591 C.ar    1  UNL1        0.0015
     12 C         137.8491  143.9402  164.9406 C.ar    1  UNL1        0.0009
     13 C         139.0354  144.8461  164.7924 C.ar    1  UNL1        0.0114
     14 C         140.2965  144.3333  164.1628 C.ar    1  UNL1        0.0577
     15 CL        141.4829  145.2393  164.0146 Cl      1  UNL1       -0.0822
     16 C         140.3714  142.9147  163.6813 C.ar    1  UNL1        0.0129
     17 C         140.4263  140.2883  166.5149 C.3     1  UNL1        0.0787
     18 C         141.7961  140.0242  165.9636 C.ar    1  UNL1        0.0035
     19 C         142.5440  141.1163  165.2578 C.ar    1  UNL1       -0.0007
     20 C         143.9137  140.8522  164.7065 C.ar    1  UNL1        0.0204
     21 C         144.5356  139.4959  164.8609 C.ar    1  UNL1        0.0989
     22 N         143.7877  138.4038  165.5666 N.ar    1  UNL1       -0.2426
     23 C         142.4180  138.6680  166.1179 C.ar    1  UNL1        0.0950
     24 C         140.2660  141.0877  167.7740 C.ar    1  UNL1        0.0035
     25 C         140.5083  142.5679  167.7587 C.ar    1  UNL1       -0.0007
     26 C         140.3479  143.3673  169.0177 C.ar    1  UNL1        0.0204
     27 C         139.9453  142.6864  170.2922 C.ar    1  UNL1        0.0989
     28 N         139.7030  141.2062  170.3075 N.ar    1  UNL1       -0.2426
     29 C         139.8633  140.4068  169.0485 C.ar    1  UNL1        0.0950
@<TRIPOS>BOND
     1     1     2    1
     2     2     4    1
     3     4     5   ar
     4     5     6   ar
     5     6     7   ar
     6     7     8   ar
     7     8     9   ar
     8     9    10    1
     9    10    11   ar
    10    11    12   ar
    11    12    13   ar
    12    13    14   ar
    13    14    15    1
    14    14    16   ar
    15     2    17    1
    16    17    18    1
    17    18    19   ar
    18    19    20   ar
    19    20    21   ar
    20    21    22   ar
    21    22    23   ar
    22    17    24    1
    23    24    25   ar
    24    25    26   ar
    25    26    27   ar
    26    27    28   ar
    27    28    29   ar
    28     9     4   ar
    29    16    10   ar
    30    23    18   ar
    31    29    24   ar
    32     1     3    1
@<TRIPOS>MOLECULE
*****
 29 32 0 0 0
SMALL
GASTEIGER

@<TRIPOS>ATOM
      1 O         140.1120  143.1884  167.3269 O.3     1  UNL1       -0.3793
      2 C         140.1309  141.7027  167.1214 C.3     1  UNL1        0.1422
      3 H         140.6272  143.4120  168.1178 H       1  UNL1        0.2108
      4 C         140.8781  140.8225  168.0791 C.ar    1  UNL1        0.0226
      5 C         140.2752  140.4799  169.4092 C.ar    1  UNL1        0.0012
      6 C         141.0223  139.5998  170.3669 C.ar    1  UNL1        0.0204
      7 C         142.3722  139.0623  169.9945 C.ar    1  UNL1        0.0988
      8 N         142.9750  139.4048  168.6643 N.ar    1  UNL1       -0.2441
      9 C         142.2279  140.2849  167.7067 C.ar    1  UNL1        0.0796
     10 C         142.8308  140.6275  166.3765 C.ar    1  UNL1        0.0183
     11 C         142.9669  139.5711  165.3204 C.ar    1  UNL1        0.0015
     12 C         143.5697  139.9137  163.9902 C.ar    1  UNL1        0.0009
     13 C         144.0364  141.3127  163.7162 C.ar    1  UNL1        0.0114
     14 C         143.9003  142.3690  164.7724 C.ar    1  UNL1        0.0577
     15 CL        144.3670  143.7681  164.4984 Cl      1  UNL1       -0.0822
     16 C         143.2975  142.0265  166.1025 C.ar    1  UNL1        0.0129
     17 C         139.4027  141.0971  165.9582 C.3     1  UNL1        0.0787
     18 C         138.8775  139.6951  166.0498 C.ar    1  UNL1        0.0035
     19 C         139.4054  138.6348  165.1293 C.ar    1  UNL1       -0.0007
     20 C         138.8802  137.2327  165.2209 C.ar    1  UNL1        0.0204
     21 C         137.8271  136.8909  166.2329 C.ar    1  UNL1        0.0989
     22 N         137.2992  137.9512  167.1533 N.ar    1  UNL1       -0.2426
     23 C         137.8244  139.3532  167.0618 C.ar    1  UNL1        0.0950
     24 C         139.1997  141.8936  164.7034 C.ar    1  UNL1        0.0035
     25 C         140.3523  142.1369  163.7748 C.ar    1  UNL1       -0.0007
     26 C         140.1493  142.9333  162.5201 C.ar    1  UNL1        0.0204
     27 C         138.7937  143.4865  162.1940 C.ar    1  UNL1        0.0989
     28 N         137.6411  143.2432  163.1226 N.ar    1  UNL1       -0.2426
     29 C         137.8441  142.4468  164.3773 C.ar    1  UNL1        0.0950
@<TRIPOS>BOND
     1     1     2    1
     2     2     4    1
     3     4     5   ar
     4     5     6   ar
     5     6     7   ar
     6     7     8   ar
     7     8     9   ar
     8     9    10    1
     9    10    11   ar
    10    11    12   ar
    11    12    13   ar
    12    13    14   ar
    13    14    15    1
    14    14    16   ar
    15     2    17    1
    16    17    18    1
    17    18    19   ar
    18    19    20   ar
    19    20    21   ar
    20    21    22   ar
    21    22    23   ar
    22    17    24    1
    23    24    25   ar
    24    25    26   ar
    25    26    27   ar
    26    27    28   ar
    27    28    29   ar
    28     9     4   ar
    29    16    10   ar
    30    23    18   ar
    31    29    24   ar
    32     1     3    1
@<TRIPOS>MOLECULE
*****
 29 32 0 0 0
SMALL
GASTEIGER

@<TRIPOS>ATOM
      1 O         140.0581  143.2207  167.2389 O.3     1  UNL1       -0.3793
      2 C         140.0973  141.7319  167.0605 C.3     1  UNL1        0.1422
      3 H         140.5557  143.4641  168.0352 H       1  UNL1        0.2108
      4 C         140.8357  140.8774  168.0478 C.ar    1  UNL1        0.0226
      5 C         140.2002  140.5289  169.3610 C.ar    1  UNL1        0.0012
      6 C         140.9386  139.6744  170.3483 C.ar    1  UNL1        0.0204
      7 C         142.3125  139.1685  170.0222 C.ar    1  UNL1        0.0988
      8 N         142.9480  139.5170  168.7090 N.ar    1  UNL1       -0.2441
      9 C         142.2097  140.3714  167.7217 C.ar    1  UNL1        0.0796
     10 C         142.8452  140.7199  166.4085 C.ar    1  UNL1        0.0183
     11 C         143.0040  139.6692  165.3498 C.ar    1  UNL1        0.0015
     12 C         143.6395  140.0177  164.0366 C.ar    1  UNL1        0.0009
     13 C         144.1163  141.4169  163.7820 C.ar    1  UNL1        0.0114
     14 C         143.9575  142.4676  164.8406 C.ar    1  UNL1        0.0577
     15 CL        144.4343  143.8669  164.5860 Cl      1  UNL1       -0.0822
     16 C         143.3220  142.1191  166.1539 C.ar    1  UNL1        0.0129
     17 C         139.3981  141.0975  165.8949 C.3     1  UNL1        0.0787
     18 C         139.2110  141.8689  164.6221 C.ar    1  UNL1        0.0035
     19 C         140.3934  142.1805  163.7533 C.ar    1  UNL1       -0.0007
     20 C         140.2063  142.9519  162.4805 C.ar    1  UNL1        0.0204
     21 C         138.8368  143.4117  162.0766 C.ar    1  UNL1        0.0989
     22 N         137.6545  143.1001  162.9454 N.ar    1  UNL1       -0.2426
     23 C         137.8416  142.3287  164.2182 C.ar    1  UNL1        0.0950
     24 C         138.8859  139.6917  166.0021 C.ar    1  UNL1        0.0035
     25 C         139.4285  138.6248  165.0979 C.ar    1  UNL1       -0.0007
     26 C         138.9164  137.2191  165.2050 C.ar    1  UNL1        0.0204
     27 C         137.8617  136.8801  166.2162 C.ar    1  UNL1        0.0989
     28 N         137.3191  137.9470  167.1204 N.ar    1  UNL1       -0.2426
     29 C         137.8312  139.3527  167.0133 C.ar    1  UNL1        0.0950
@<TRIPOS>BOND
     1     1     2    1
     2     2     4    1
     3     4     5   ar
     4     5     6   ar
     5     6     7   ar
     6     7     8   ar
     7     8     9   ar
     8     9    10    1
     9    10    11   ar
    10    11    12   ar
    11    12    13   ar
    12    13    14   ar
    13    14    15    1
    14    14    16   ar
    15     2    17    1
    16    17    18    1
    17    18    19   ar
    18    19    20   ar
    19    20    21   ar
    20    21    22   ar
    21    22    23   ar
    22    17    24    1
    23    24    25   ar
    24    25    26   ar
    25    26    27   ar
    26    27    28   ar
    27    28    29   ar
    28     9     4   ar
    29    16    10   ar
    30    23    18   ar
    31    29    24   ar
    32     1     3    1
