@<TRIPOS>MOLECULE
*****
 33 36 0 0 0
SMALL
GASTEIGER

@<TRIPOS>ATOM
      1 C         139.5294  144.2894  161.3655 C.ar    1  UNL1        0.1873
      2 N         138.8652  143.4918  160.2826 N.ar    1  UNL1       -0.1378
      3 N         138.1589  142.2120  160.6195 N.ar    1  UNL1       -0.1124
      4 C         138.1169  141.7298  162.0392 C.ar    1  UNL1        0.2373
      5 N         138.7811  142.5274  163.1222 N.ar    1  UNL1       -0.1958
      6 C         139.4873  143.8072  162.7853 C.ar    1  UNL1        0.1590
      7 N         141.4854  145.5404  160.1998 N.am    1  UNL1       -0.3239
      8 C         140.2355  145.5692  161.0286 C.2     1  UNL1        0.2651
      9 O         139.6917  146.8778  161.5206 O.2     1  UNL1       -0.2686
     10 H         141.9488  146.3803  159.9787 H       1  UNL1        0.1453
     11 H         141.8422  144.6815  159.8770 H       1  UNL1        0.1453
     12 N         137.4107  140.4501  162.3761 N.pl3   1  UNL1       -0.3021
     13 H         136.5359  140.2494  161.9716 H       1  UNL1        0.1497
     14 C         138.0375  139.4761  163.3293 C.3     1  UNL1        0.0859
     15 C         138.0198  139.7524  164.8035 C.3     1  UNL1        0.0209
     16 C         138.6466  138.7783  165.7566 C.3     1  UNL1        0.0018
     17 C         139.2910  137.5280  165.2355 C.3     1  UNL1        0.0015
     18 C         139.3086  137.2518  163.7612 C.3     1  UNL1        0.0172
     19 C         138.6819  138.2257  162.8082 C.3     1  UNL1        0.0690
     20 N         138.6995  137.9496  161.3339 N.3     1  UNL1       -0.3209
     21 H         138.2330  138.7103  160.8399 H       1  UNL1        0.1189
     22 H         138.2125  137.0732  161.1463 H       1  UNL1        0.1189
     23 N         140.1515  144.6048  163.8682 N.pl3   1  UNL1       -0.2980
     24 H         139.6856  145.3737  164.2694 H       1  UNL1        0.1534
     25 C         141.5255  144.2309  164.3397 C.2     1  UNL1        0.0532
     26 C         142.7149  145.0271  163.8910 C.2     1  UNL1        0.0125
     27 C         144.0888  144.6533  164.3625 C.2     1  UNL1        0.0008
     28 C         144.2735  143.4832  165.2828 C.2     1  UNL1       -0.0020
     29 C         143.0841  142.6871  165.7315 C.2     1  UNL1        0.0067
     30 C         142.9570  141.4919  166.6290 C.2     1  UNL1        0.0182
     31 C         141.5044  141.1271  166.7121 C.2     1  UNL1        0.0936
     32 N         140.7338  142.0968  165.8660 N.2     1  UNL1       -0.2607
     33 C         141.7101  143.0609  165.2600 C.3     1  UNL1        0.1609
@<TRIPOS>BOND
     1     7     8   am
     2     8     9    2
     3     8     1    1
     4     1     2   ar
     5     2     3   ar
     6     3     4   ar
     7     4    12    1
     8    14    12    1
     9    14    15    1
    10    15    16    1
    11    16    17    1
    12    17    18    1
    13    18    19    1
    14    19    20    1
    15     4     5   ar
    16     5     6   ar
    17     6    23    1
    18    23    25    1
    19    25    26    2
    20    26    27    1
    21    27    28    2
    22    28    29    1
    23    29    30    2
    24    30    31    1
    25    31    32    2
    26    32    33    1
    27     6     1   ar
    28    33    25    1
    29    19    14    1
    30    33    29    1
    31     7    10    1
    32     7    11    1
    33    12    13    1
    34    20    21    1
    35    20    22    1
    36    23    24    1
@<TRIPOS>MOLECULE
*****
 33 36 0 0 0
SMALL
GASTEIGER

@<TRIPOS>ATOM
      1 C         138.7332  139.2425  164.8362 C.ar    1  UNL1        0.1873
      2 N         137.8687  138.6898  165.9304 N.ar    1  UNL1       -0.1378
      3 N         138.2395  138.9166  167.3661 N.ar    1  UNL1       -0.1124
      4 C         139.4746  139.6962  167.7076 C.ar    1  UNL1        0.2373
      5 N         140.3391  140.2489  166.6134 N.ar    1  UNL1       -0.1958
      6 C         139.9684  140.0221  165.1778 C.ar    1  UNL1        0.1590
      7 N         137.5640  140.0471  162.6602 N.am    1  UNL1       -0.3239
      8 C         138.3624  139.0156  163.4006 C.2     1  UNL1        0.2651
      9 O         138.7902  137.7571  162.7054 O.2     1  UNL1       -0.2686
     10 H         137.3206  139.8982  161.7179 H       1  UNL1        0.1453
     11 H         137.2832  140.8731  163.1165 H       1  UNL1        0.1453
     12 N         139.8454  139.9230  169.1432 N.pl3   1  UNL1       -0.3021
     13 H         139.4009  139.4067  169.8539 H       1  UNL1        0.1497
     14 C         140.8934  140.9366  169.4960 C.3     1  UNL1        0.0859
     15 C         140.5047  142.3657  169.7335 C.3     1  UNL1        0.0209
     16 C         141.5528  143.3792  170.0864 C.3     1  UNL1        0.0018
     17 C         142.9894  142.9636  170.2017 C.3     1  UNL1        0.0015
     18 C         143.3780  141.5343  169.9641 C.3     1  UNL1        0.0172
     19 C         142.3301  140.5209  169.6113 C.3     1  UNL1        0.0690
     20 N         142.7186  139.0917  169.3738 N.3     1  UNL1       -0.3209
     21 H         141.8869  138.5465  169.1467 H       1  UNL1        0.1189
     22 H         143.1539  138.7133  170.2151 H       1  UNL1        0.1189
     23 N         140.8328  140.5748  164.0836 N.pl3   1  UNL1       -0.2980
     24 H         141.2189  139.9709  163.4087 H       1  UNL1        0.1534
     25 C         141.1090  142.0477  164.0176 C.2     1  UNL1        0.0532
     26 C         142.4786  142.5690  164.3375 C.2     1  UNL1        0.0125
     27 C         142.7548  144.0418  164.2715 C.2     1  UNL1        0.0008
     28 C         141.6614  144.9934  163.8857 C.2     1  UNL1       -0.0020
     29 C         140.2918  144.4721  163.5658 C.2     1  UNL1        0.0067
     30 C         139.0247  145.1636  163.1580 C.2     1  UNL1        0.0182
     31 C         137.9654  144.1180  162.9719 C.2     1  UNL1        0.0936
     32 N         138.5777  142.7804  163.2647 N.2     1  UNL1       -0.2607
     33 C         140.0156  142.9993  163.6318 C.3     1  UNL1        0.1609
@<TRIPOS>BOND
     1     7     8   am
     2     8     9    2
     3     8     1    1
     4     1     2   ar
     5     2     3   ar
     6     3     4   ar
     7     4    12    1
     8    14    12    1
     9    14    15    1
    10    15    16    1
    11    16    17    1
    12    17    18    1
    13    18    19    1
    14    19    20    1
    15     4     5   ar
    16     5     6   ar
    17     6    23    1
    18    23    25    1
    19    25    26    2
    20    26    27    1
    21    27    28    2
    22    28    29    1
    23    29    30    2
    24    30    31    1
    25    31    32    2
    26    32    33    1
    27     6     1   ar
    28    33    25    1
    29    19    14    1
    30    33    29    1
    31     7    10    1
    32     7    11    1
    33    12    13    1
    34    20    21    1
    35    20    22    1
    36    23    24    1
@<TRIPOS>MOLECULE
*****
 33 36 0 0 0
SMALL
GASTEIGER

@<TRIPOS>ATOM
      1 C         141.8946  140.8972  168.8256 C.ar    1  UNL1        0.1873
      2 N         140.7826  140.1323  169.4801 N.ar    1  UNL1       -0.1378
      3 N         139.5805  139.7249  168.6805 N.ar    1  UNL1       -0.1124
      4 C         139.4906  140.0822  167.2265 C.ar    1  UNL1        0.2373
      5 N         140.6027  140.8471  166.5720 N.ar    1  UNL1       -0.1958
      6 C         141.8047  141.2545  167.3715 C.ar    1  UNL1        0.1590
      7 N         143.6047  140.4157  170.7213 N.am    1  UNL1       -0.3239
      8 C         143.0966  141.3046  169.6251 C.2     1  UNL1        0.2651
      9 O         143.7904  142.6010  169.3284 O.2     1  UNL1       -0.2686
     10 H         144.3935  140.6831  171.2460 H       1  UNL1        0.1453
     11 H         143.1493  139.5649  170.9160 H       1  UNL1        0.1453
     12 N         138.2887  139.6748  166.4270 N.pl3   1  UNL1       -0.3021
     13 H         137.3984  139.6644  166.8472 H       1  UNL1        0.1497
     14 C         138.4431  139.2834  164.9872 C.3     1  UNL1        0.0859
     15 C         139.0393  137.9538  164.6313 C.3     1  UNL1        0.0209
     16 C         139.1938  137.5624  163.1915 C.3     1  UNL1        0.0018
     17 C         138.7520  138.5005  162.1076 C.3     1  UNL1        0.0015
     18 C         138.1558  139.8302  162.4636 C.3     1  UNL1        0.0172
     19 C         138.0014  140.2216  163.9033 C.3     1  UNL1        0.0690
     20 N         137.4052  141.5512  164.2594 N.3     1  UNL1       -0.3209
     21 H         137.3764  141.6501  165.2742 H       1  UNL1        0.1189
     22 H         136.4582  141.6104  163.8850 H       1  UNL1        0.1189
     23 N         142.9167  142.0193  166.7170 N.pl3   1  UNL1       -0.2980
     24 H         143.2565  142.8453  167.1314 H       1  UNL1        0.1534
     25 C         143.5111  141.5258  165.4313 C.2     1  UNL1        0.0532
     26 C         143.8144  140.0672  165.2564 C.2     1  UNL1        0.0125
     27 C         144.4088  139.5737  163.9707 C.2     1  UNL1        0.0008
     28 C         144.6999  140.5387  162.8598 C.2     1  UNL1       -0.0020
     29 C         144.3966  141.9973  163.0347 C.2     1  UNL1        0.0067
     30 C         144.5736  143.1755  162.1234 C.2     1  UNL1        0.0182
     31 C         144.0885  144.3972  162.8460 C.2     1  UNL1        0.0936
     32 N         143.6118  143.9741  164.2038 N.2     1  UNL1       -0.2607
     33 C         143.8022  142.4908  164.3204 C.3     1  UNL1        0.1609
@<TRIPOS>BOND
     1     7     8   am
     2     8     9    2
     3     8     1    1
     4     1     2   ar
     5     2     3   ar
     6     3     4   ar
     7     4    12    1
     8    14    12    1
     9    14    15    1
    10    15    16    1
    11    16    17    1
    12    17    18    1
    13    18    19    1
    14    19    20    1
    15     4     5   ar
    16     5     6   ar
    17     6    23    1
    18    23    25    1
    19    25    26    2
    20    26    27    1
    21    27    28    2
    22    28    29    1
    23    29    30    2
    24    30    31    1
    25    31    32    2
    26    32    33    1
    27     6     1   ar
    28    33    25    1
    29    19    14    1
    30    33    29    1
    31     7    10    1
    32     7    11    1
    33    12    13    1
    34    20    21    1
    35    20    22    1
    36    23    24    1
@<TRIPOS>MOLECULE
*****
 33 36 0 0 0
SMALL
GASTEIGER

@<TRIPOS>ATOM
      1 C         138.3260  138.7950  163.0822 C.ar    1  UNL1        0.1873
      2 N         138.9127  137.6473  163.8492 N.ar    1  UNL1       -0.1378
      3 N         139.0508  137.7341  165.3403 N.ar    1  UNL1       -0.1124
      4 C         138.6021  138.9687  166.0644 C.ar    1  UNL1        0.2373
      5 N         138.0153  140.1165  165.2975 N.ar    1  UNL1       -0.1958
      6 C         137.8772  140.0297  163.8064 C.ar    1  UNL1        0.1590
      7 N         139.1636  137.8945  160.7937 N.am    1  UNL1       -0.3239
      8 C         138.1879  138.7082  161.5911 C.2     1  UNL1        0.2651
      9 O         137.0741  139.4351  160.8974 O.2     1  UNL1       -0.2686
     10 H         139.0729  137.8376  159.8150 H       1  UNL1        0.1453
     11 H         139.8946  137.4175  161.2490 H       1  UNL1        0.1453
     12 N         138.7401  139.0555  167.5555 N.pl3   1  UNL1       -0.3021
     13 H         138.3846  138.3358  168.1255 H       1  UNL1        0.1497
     14 C         139.4199  140.2389  168.1781 C.3     1  UNL1        0.0859
     15 C         140.3752  141.0660  167.3700 C.3     1  UNL1        0.0209
     16 C         141.0549  142.2494  167.9927 C.3     1  UNL1        0.0018
     17 C         140.7792  142.6056  169.4235 C.3     1  UNL1        0.0015
     18 C         139.8238  141.7784  170.2316 C.3     1  UNL1        0.0172
     19 C         139.1442  140.5951  169.6090 C.3     1  UNL1        0.0690
     20 N         138.1888  139.7679  170.4170 N.3     1  UNL1       -0.3209
     21 H         137.8227  139.0106  169.8401 H       1  UNL1        0.1189
     22 H         137.4181  140.3543  170.7373 H       1  UNL1        0.1189
     23 N         137.2904  141.1774  163.0394 N.pl3   1  UNL1       -0.2980
     24 H         136.4503  141.0577  162.5404 H       1  UNL1        0.1534
     25 C         137.9837  142.5076  163.0327 C.2     1  UNL1        0.0532
     26 C         137.9563  143.3738  164.2570 C.2     1  UNL1        0.0125
     27 C         138.6495  144.7039  164.2504 C.2     1  UNL1        0.0008
     28 C         139.3703  145.1679  163.0194 C.2     1  UNL1       -0.0020
     29 C         139.3977  144.3017  161.7951 C.2     1  UNL1        0.0067
     30 C         140.0228  144.4920  160.4449 C.2     1  UNL1        0.0182
     31 C         139.7158  143.2794  159.6171 C.2     1  UNL1        0.0936
     32 N         138.9010  142.3397  160.4556 N.2     1  UNL1       -0.2607
     33 C         138.7044  142.9716  161.8018 C.3     1  UNL1        0.1609
@<TRIPOS>BOND
     1     7     8   am
     2     8     9    2
     3     8     1    1
     4     1     2   ar
     5     2     3   ar
     6     3     4   ar
     7     4    12    1
     8    14    12    1
     9    14    15    1
    10    15    16    1
    11    16    17    1
    12    17    18    1
    13    18    19    1
    14    19    20    1
    15     4     5   ar
    16     5     6   ar
    17     6    23    1
    18    23    25    1
    19    25    26    2
    20    26    27    1
    21    27    28    2
    22    28    29    1
    23    29    30    2
    24    30    31    1
    25    31    32    2
    26    32    33    1
    27     6     1   ar
    28    33    25    1
    29    19    14    1
    30    33    29    1
    31     7    10    1
    32     7    11    1
    33    12    13    1
    34    20    21    1
    35    20    22    1
    36    23    24    1
@<TRIPOS>MOLECULE
*****
 33 36 0 0 0
SMALL
GASTEIGER

@<TRIPOS>ATOM
      1 C         139.1449  142.3713  158.2668 C.ar    1  UNL1        0.1873
      2 N         138.7878  140.9973  157.7826 N.ar    1  UNL1       -0.1378
      3 N         138.1912  139.9994  158.7306 N.ar    1  UNL1       -0.1124
      4 C         137.9518  140.3756  160.1627 C.ar    1  UNL1        0.2373
      5 N         138.3089  141.7497  160.6470 N.ar    1  UNL1       -0.1958
      6 C         138.9054  142.7475  159.6991 C.ar    1  UNL1        0.1590
      7 N         139.1097  143.6006  155.9783 N.am    1  UNL1       -0.3239
      8 C         139.7414  143.3691  157.3189 C.2     1  UNL1        0.2651
      9 O         140.9697  144.1353  157.7117 O.2     1  UNL1       -0.2686
     10 H         139.5012  144.2555  155.3562 H       1  UNL1        0.1453
     11 H         138.3036  143.0977  155.7206 H       1  UNL1        0.1453
     12 N         137.3553  139.3778  161.1106 N.pl3   1  UNL1       -0.3021
     13 H         136.5750  138.8437  160.8364 H       1  UNL1        0.1497
     14 C         137.9476  139.1937  162.4764 C.3     1  UNL1        0.0859
     15 C         138.8281  138.0127  162.7591 C.3     1  UNL1        0.0209
     16 C         139.4203  137.8287  164.1249 C.3     1  UNL1        0.0018
     17 C         139.1322  138.8257  165.2080 C.3     1  UNL1        0.0015
     18 C         138.2517  140.0067  164.9252 C.3     1  UNL1        0.0172
     19 C         137.6594  140.1908  163.5595 C.3     1  UNL1        0.0690
     20 N         136.7789  141.3718  163.2766 N.3     1  UNL1       -0.3209
     21 H         136.4668  141.3385  162.3061 H       1  UNL1        0.1189
     22 H         137.3028  142.2323  163.4360 H       1  UNL1        0.1189
     23 N         139.2625  144.1215  160.1833 N.pl3   1  UNL1       -0.2980
     24 H         138.9684  144.9134  159.6778 H       1  UNL1        0.1534
     25 C         140.0676  144.2889  161.4378 C.2     1  UNL1        0.0532
     26 C         141.5613  144.4027  161.3607 C.2     1  UNL1        0.0125
     27 C         142.3664  144.5701  162.6151 C.2     1  UNL1        0.0008
     28 C         141.6779  144.6237  163.9468 C.2     1  UNL1       -0.0020
     29 C         140.1842  144.5099  164.0238 C.2     1  UNL1        0.0067
     30 C         139.2348  144.5286  165.1850 C.2     1  UNL1        0.0182
     31 C         137.8429  144.3728  164.6481 C.2     1  UNL1        0.0936
     32 N         137.9321  144.2578  163.1552 N.2     1  UNL1       -0.2607
     33 C         139.3791  144.3425  162.7694 C.3     1  UNL1        0.1609
@<TRIPOS>BOND
     1     7     8   am
     2     8     9    2
     3     8     1    1
     4     1     2   ar
     5     2     3   ar
     6     3     4   ar
     7     4    12    1
     8    14    12    1
     9    14    15    1
    10    15    16    1
    11    16    17    1
    12    17    18    1
    13    18    19    1
    14    19    20    1
    15     4     5   ar
    16     5     6   ar
    17     6    23    1
    18    23    25    1
    19    25    26    2
    20    26    27    1
    21    27    28    2
    22    28    29    1
    23    29    30    2
    24    30    31    1
    25    31    32    2
    26    32    33    1
    27     6     1   ar
    28    33    25    1
    29    19    14    1
    30    33    29    1
    31     7    10    1
    32     7    11    1
    33    12    13    1
    34    20    21    1
    35    20    22    1
    36    23    24    1
@<TRIPOS>MOLECULE
*****
 33 36 0 0 0
SMALL
GASTEIGER

@<TRIPOS>ATOM
      1 C         139.3705  139.8483  168.0865 C.ar    1  UNL1        0.1873
      2 N         138.1093  139.0505  167.9351 N.ar    1  UNL1       -0.1378
      3 N         137.8534  138.2849  166.6708 N.ar    1  UNL1       -0.1124
      4 C         138.8585  138.3171  165.5580 C.ar    1  UNL1        0.2373
      5 N         140.1198  139.1149  165.7093 N.ar    1  UNL1       -0.1958
      6 C         140.3757  139.8805  166.9736 C.ar    1  UNL1        0.1590
      7 N         139.5493  139.9183  170.6774 N.am    1  UNL1       -0.3239
      8 C         139.6264  140.6139  169.3508 C.2     1  UNL1        0.2651
      9 O         139.9594  142.0752  169.2883 O.2     1  UNL1       -0.2686
     10 H         139.7173  140.4208  171.5072 H       1  UNL1        0.1453
     11 H         139.3308  138.9592  170.7184 H       1  UNL1        0.1453
     12 N         138.6026  137.5515  164.2937 N.pl3   1  UNL1       -0.3021
     13 H         138.2061  136.6513  164.3350 H       1  UNL1        0.1497
     14 C         138.9508  138.1575  162.9664 C.3     1  UNL1        0.0859
     15 C         137.9945  139.1004  162.2984 C.3     1  UNL1        0.0209
     16 C         138.3427  139.7063  160.9711 C.3     1  UNL1        0.0018
     17 C         139.6473  139.3693  160.3119 C.3     1  UNL1        0.0015
     18 C         140.6036  138.4263  160.9800 C.3     1  UNL1        0.0172
     19 C         140.2554  137.8204  162.3072 C.3     1  UNL1        0.0690
     20 N         141.2117  136.8775  162.9753 N.3     1  UNL1       -0.3209
     21 H         140.8166  136.5643  163.8620 H       1  UNL1        0.1189
     22 H         142.0963  137.3554  163.1472 H       1  UNL1        0.1189
     23 N         141.6369  140.6783  167.1250 N.pl3   1  UNL1       -0.2980
     24 H         141.7217  141.3307  167.8574 H       1  UNL1        0.1534
     25 C         142.7688  140.4821  166.1605 C.2     1  UNL1        0.0532
     26 C         143.3943  139.1278  166.0037 C.2     1  UNL1        0.0125
     27 C         144.5262  138.9316  165.0393 C.2     1  UNL1        0.0008
     28 C         145.0327  140.0897  164.2315 C.2     1  UNL1       -0.0020
     29 C         144.4072  141.4440  164.3883 C.2     1  UNL1        0.0067
     30 C         144.6916  142.7629  163.7329 C.2     1  UNL1        0.0182
     31 C         143.7355  143.7742  164.2923 C.2     1  UNL1        0.0936
     32 N         142.8601  143.0804  165.2935 N.2     1  UNL1       -0.2607
     33 C         143.2753  141.6402  165.3528 C.3     1  UNL1        0.1609
@<TRIPOS>BOND
     1     7     8   am
     2     8     9    2
     3     8     1    1
     4     1     2   ar
     5     2     3   ar
     6     3     4   ar
     7     4    12    1
     8    14    12    1
     9    14    15    1
    10    15    16    1
    11    16    17    1
    12    17    18    1
    13    18    19    1
    14    19    20    1
    15     4     5   ar
    16     5     6   ar
    17     6    23    1
    18    23    25    1
    19    25    26    2
    20    26    27    1
    21    27    28    2
    22    28    29    1
    23    29    30    2
    24    30    31    1
    25    31    32    2
    26    32    33    1
    27     6     1   ar
    28    33    25    1
    29    19    14    1
    30    33    29    1
    31     7    10    1
    32     7    11    1
    33    12    13    1
    34    20    21    1
    35    20    22    1
    36    23    24    1
@<TRIPOS>MOLECULE
*****
 33 36 0 0 0
SMALL
GASTEIGER

@<TRIPOS>ATOM
      1 C         139.3820  139.8712  168.0176 C.ar    1  UNL1        0.1873
      2 N         138.1456  139.0452  167.8199 N.ar    1  UNL1       -0.1378
      3 N         137.9530  138.2762  166.5464 N.ar    1  UNL1       -0.1124
      4 C         138.9968  138.3331  165.4707 C.ar    1  UNL1        0.2373
      5 N         140.2333  139.1591  165.6684 N.ar    1  UNL1       -0.1958
      6 C         140.4258  139.9281  166.9418 C.ar    1  UNL1        0.1590
      7 N         139.3039  139.9833  170.6120 N.am    1  UNL1       -0.3239
      8 C         139.5746  140.6401  169.2910 C.2     1  UNL1        0.2651
      9 O         140.0378  142.0661  169.2432 O.2     1  UNL1       -0.2686
     10 H         139.4303  140.4880  171.4477 H       1  UNL1        0.1453
     11 H         138.9999  139.0475  170.6433 H       1  UNL1        0.1453
     12 N         138.8042  137.5641  164.1973 N.pl3   1  UNL1       -0.3021
     13 H         138.5213  136.6217  164.2294 H       1  UNL1        0.1497
     14 C         139.0428  138.2310  162.8751 C.3     1  UNL1        0.0859
     15 C         138.0204  139.1758  162.3163 C.3     1  UNL1        0.0209
     16 C         138.2591  139.8426  160.9940 C.3     1  UNL1        0.0018
     17 C         139.5200  139.5648  160.2305 C.3     1  UNL1        0.0015
     18 C         140.5423  138.6200  160.7894 C.3     1  UNL1        0.0172
     19 C         140.3038  137.9531  162.1116 C.3     1  UNL1        0.0690
     20 N         141.3261  137.0084  162.6705 N.3     1  UNL1       -0.3209
     21 H         141.0027  136.6503  163.5691 H       1  UNL1        0.1189
     22 H         142.2100  137.5010  162.7989 H       1  UNL1        0.1189
     23 N         141.6622  140.7540  167.1395 N.pl3   1  UNL1       -0.2980
     24 H         142.1841  140.6680  167.9698 H       1  UNL1        0.1534
     25 C         142.1035  141.7111  166.0721 C.2     1  UNL1        0.0532
     26 C         143.4840  141.6064  165.4949 C.2     1  UNL1        0.0125
     27 C         143.9252  142.5634  164.4276 C.2     1  UNL1        0.0008
     28 C         142.9859  143.6252  163.9373 C.2     1  UNL1       -0.0020
     29 C         141.6054  143.7299  164.5144 C.2     1  UNL1        0.0067
     30 C         140.4679  144.6662  164.2322 C.2     1  UNL1        0.0182
     31 C         139.3237  144.2877  165.1253 C.2     1  UNL1        0.0936
     32 N         139.7540  143.1176  165.9594 N.2     1  UNL1       -0.2607
     33 C         141.1642  142.7728  165.5818 C.3     1  UNL1        0.1609
@<TRIPOS>BOND
     1     7     8   am
     2     8     9    2
     3     8     1    1
     4     1     2   ar
     5     2     3   ar
     6     3     4   ar
     7     4    12    1
     8    14    12    1
     9    14    15    1
    10    15    16    1
    11    16    17    1
    12    17    18    1
    13    18    19    1
    14    19    20    1
    15     4     5   ar
    16     5     6   ar
    17     6    23    1
    18    23    25    1
    19    25    26    2
    20    26    27    1
    21    27    28    2
    22    28    29    1
    23    29    30    2
    24    30    31    1
    25    31    32    2
    26    32    33    1
    27     6     1   ar
    28    33    25    1
    29    19    14    1
    30    33    29    1
    31     7    10    1
    32     7    11    1
    33    12    13    1
    34    20    21    1
    35    20    22    1
    36    23    24    1
@<TRIPOS>MOLECULE
*****
 33 36 0 0 0
SMALL
GASTEIGER

@<TRIPOS>ATOM
      1 C         139.4166  144.0914  161.7675 C.ar    1  UNL1        0.1873
      2 N         137.9763  143.7143  161.9500 N.ar    1  UNL1       -0.1378
      3 N         137.5905  142.2713  162.0883 N.ar    1  UNL1       -0.1124
      4 C         138.6449  141.2055  162.0440 C.ar    1  UNL1        0.2373
      5 N         140.0853  141.5826  161.8615 N.ar    1  UNL1       -0.1958
      6 C         140.4711  143.0255  161.7232 C.ar    1  UNL1        0.1590
      7 N         140.4572  146.2486  162.7741 N.am    1  UNL1       -0.3239
      8 C         139.8023  145.5343  161.6293 C.2     1  UNL1        0.2651
      9 O         139.5331  146.2630  160.3460 O.2     1  UNL1       -0.2686
     10 H         140.7103  147.1956  162.6834 H       1  UNL1        0.1453
     11 H         140.6338  145.7703  163.6164 H       1  UNL1        0.1453
     12 N         138.2592  139.7626  162.1822 N.pl3   1  UNL1       -0.3021
     13 H         137.4347  139.4307  161.7588 H       1  UNL1        0.1497
     14 C         139.1297  138.8252  162.9656 C.3     1  UNL1        0.0859
     15 C         138.7542  138.4483  164.3680 C.3     1  UNL1        0.0209
     16 C         139.6247  137.5109  165.1513 C.3     1  UNL1        0.0018
     17 C         140.8708  136.9505  164.5322 C.3     1  UNL1        0.0015
     18 C         141.2463  137.3275  163.1297 C.3     1  UNL1        0.0172
     19 C         140.3758  138.2648  162.3464 C.3     1  UNL1        0.0690
     20 N         140.7512  138.6418  160.9439 N.3     1  UNL1       -0.3209
     21 H         140.0529  139.2816  160.5654 H       1  UNL1        0.1189
     22 H         140.7924  137.8025  160.3657 H       1  UNL1        0.1189
     23 N         141.9114  143.4026  161.5407 N.pl3   1  UNL1       -0.2980
     24 H         142.2113  143.8050  160.6938 H       1  UNL1        0.1534
     25 C         142.8946  143.1666  162.6486 C.2     1  UNL1        0.0532
     26 C         143.2597  144.2856  163.5785 C.2     1  UNL1        0.0125
     27 C         144.2429  144.0496  164.6863 C.2     1  UNL1        0.0008
     28 C         144.8612  142.6946  164.8645 C.2     1  UNL1       -0.0020
     29 C         144.4962  141.5756  163.9346 C.2     1  UNL1        0.0067
     30 C         144.9391  140.1442  163.8643 C.2     1  UNL1        0.0182
     31 C         144.2296  139.4956  162.7128 C.2     1  UNL1        0.0936
     32 N         143.3481  140.5260  162.0716 N.2     1  UNL1       -0.2607
     33 C         143.5129  141.8116  162.8267 C.3     1  UNL1        0.1609
@<TRIPOS>BOND
     1     7     8   am
     2     8     9    2
     3     8     1    1
     4     1     2   ar
     5     2     3   ar
     6     3     4   ar
     7     4    12    1
     8    14    12    1
     9    14    15    1
    10    15    16    1
    11    16    17    1
    12    17    18    1
    13    18    19    1
    14    19    20    1
    15     4     5   ar
    16     5     6   ar
    17     6    23    1
    18    23    25    1
    19    25    26    2
    20    26    27    1
    21    27    28    2
    22    28    29    1
    23    29    30    2
    24    30    31    1
    25    31    32    2
    26    32    33    1
    27     6     1   ar
    28    33    25    1
    29    19    14    1
    30    33    29    1
    31     7    10    1
    32     7    11    1
    33    12    13    1
    34    20    21    1
    35    20    22    1
    36    23    24    1
@<TRIPOS>MOLECULE
*****
 33 36 0 0 0
SMALL
GASTEIGER

@<TRIPOS>ATOM
      1 C         140.5751  140.9366  169.4083 C.ar    1  UNL1        0.1873
      2 N         139.4522  139.9932  169.7227 N.ar    1  UNL1       -0.1378
      3 N         138.6098  139.4340  168.6145 N.ar    1  UNL1       -0.1124
      4 C         138.8905  139.8184  167.1921 C.ar    1  UNL1        0.2373
      5 N         140.0135  140.7619  166.8776 N.ar    1  UNL1       -0.1958
      6 C         140.8558  141.3209  167.9857 C.ar    1  UNL1        0.1590
      7 N         142.1783  140.5712  171.4198 N.am    1  UNL1       -0.3239
      8 C         141.4174  141.4957  170.5164 C.2     1  UNL1        0.2651
      9 O         141.4988  142.9795  170.7211 O.2     1  UNL1       -0.2686
     10 H         142.7311  140.9381  172.1471 H       1  UNL1        0.1453
     11 H         142.1248  139.5973  171.2854 H       1  UNL1        0.1453
     12 N         138.0482  139.2593  166.0839 N.pl3   1  UNL1       -0.3021
     13 H         137.0764  139.1599  166.2064 H       1  UNL1        0.1497
     14 C         138.6866  138.8515  164.7892 C.3     1  UNL1        0.0859
     15 C         139.7126  137.7575  164.7707 C.3     1  UNL1        0.0209
     16 C         140.3509  137.3498  163.4760 C.3     1  UNL1        0.0018
     17 C         139.9632  138.0361  162.1998 C.3     1  UNL1        0.0015
     18 C         138.9371  139.1301  162.2183 C.3     1  UNL1        0.0172
     19 C         138.2988  139.5378  163.5130 C.3     1  UNL1        0.0690
     20 N         137.2728  140.6318  163.5316 N.3     1  UNL1       -0.3209
     21 H         136.9475  140.7766  164.4874 H       1  UNL1        0.1189
     22 H         136.4844  140.3686  162.9403 H       1  UNL1        0.1189
     23 N         141.9787  142.2644  167.6714 N.pl3   1  UNL1       -0.2980
     24 H         142.1674  143.0222  168.2709 H       1  UNL1        0.1534
     25 C         142.8142  142.0533  166.4436 C.2     1  UNL1        0.0532
     26 C         143.1843  143.2214  165.5783 C.2     1  UNL1        0.0125
     27 C         144.0197  143.0103  164.3506 C.2     1  UNL1        0.0008
     28 C         144.4851  141.6311  163.9880 C.2     1  UNL1       -0.0020
     29 C         144.1150  140.4631  164.8532 C.2     1  UNL1        0.0067
     30 C         144.4255  138.9993  164.7498 C.2     1  UNL1        0.0182
     31 C         143.7819  138.3056  165.9137 C.2     1  UNL1        0.0936
     32 N         143.0737  139.3408  166.7365 N.2     1  UNL1       -0.2607
     33 C         143.2795  140.6742  166.0810 C.3     1  UNL1        0.1609
@<TRIPOS>BOND
     1     7     8   am
     2     8     9    2
     3     8     1    1
     4     1     2   ar
     5     2     3   ar
     6     3     4   ar
     7     4    12    1
     8    14    12    1
     9    14    15    1
    10    15    16    1
    11    16    17    1
    12    17    18    1
    13    18    19    1
    14    19    20    1
    15     4     5   ar
    16     5     6   ar
    17     6    23    1
    18    23    25    1
    19    25    26    2
    20    26    27    1
    21    27    28    2
    22    28    29    1
    23    29    30    2
    24    30    31    1
    25    31    32    2
    26    32    33    1
    27     6     1   ar
    28    33    25    1
    29    19    14    1
    30    33    29    1
    31     7    10    1
    32     7    11    1
    33    12    13    1
    34    20    21    1
    35    20    22    1
    36    23    24    1
