@<TRIPOS>MOLECULE
*****
 26 28 0 0 0
SMALL
GASTEIGER

@<TRIPOS>ATOM
      1 C         138.0991  138.4552  162.0977 C.3     1  UNL1        0.1165
      2 N         138.7068  139.0681  163.3244 N.am    1  UNL1       -0.2605
      3 C         138.8866  138.2435  164.5645 C.3     1  UNL1        0.1165
      4 C         139.1349  140.5057  163.3111 C.2     1  UNL1        0.3079
      5 O         138.9552  141.3304  162.0711 O.2     1  UNL1       -0.2523
      6 N         139.7427  141.1186  164.5379 N.am    1  UNL1       -0.2540
      7 C         139.9840  140.4222  165.8443 C.3     1  UNL1        0.1221
      8 C         140.6063  141.4088  166.7875 C.2     1  UNL1       -0.0024
      9 C         140.7497  142.7148  166.0639 C.2     1  UNL1       -0.0047
     10 C         140.2160  142.5356  164.6736 C.3     1  UNL1        0.1218
     11 C         141.0138  141.1369  168.2053 C.ar    1  UNL1        0.0271
     12 C         141.6841  139.8422  168.5579 C.ar    1  UNL1        0.0316
     13 C         142.0915  139.5704  169.9756 C.ar    1  UNL1        0.1403
     14 F         142.7620  138.2756  170.3283 F       1  UNL1       -0.2042
     15 C         141.8286  140.5932  171.0408 C.ar    1  UNL1        0.0319
     16 C         141.1582  141.8879  170.6882 C.ar    1  UNL1        0.0319
     17 C         140.7508  142.1597  169.2705 C.ar    1  UNL1        0.1400
     18 F         140.0804  143.4545  168.9178 F       1  UNL1       -0.2042
     19 C         140.1645  143.5883  163.6063 C.ar    1  UNL1        0.0029
     20 C         138.9920  144.5207  163.5284 C.ar    1  UNL1       -0.0021
     21 C         138.9405  145.5734  162.4613 C.ar    1  UNL1        0.0028
     22 C         140.0616  145.6938  161.4719 C.ar    1  UNL1        0.0366
     23 C         141.2340  144.7616  161.5497 C.ar    1  UNL1        0.1334
     24 O         142.3550  144.8820  160.5604 O.3     1  UNL1       -0.5055
     25 C         141.2855  143.7088  162.6170 C.ar    1  UNL1        0.0343
     26 H         142.3229  145.5397  159.8937 H       1  UNL1        0.2922
@<TRIPOS>BOND
     1     1     2    1
     2     2     3    1
     3     2     4   am
     4     4     5    2
     5     4     6   am
     6     6     7    1
     7     7     8    1
     8     8    11    1
     9    11    12   ar
    10    12    13   ar
    11    13    14    1
    12    13    15   ar
    13    15    16   ar
    14    16    17   ar
    15    17    18    1
    16     8     9    2
    17     9    10    1
    18    10    19    1
    19    19    20   ar
    20    20    21   ar
    21    21    22   ar
    22    22    23   ar
    23    23    24    1
    24    23    25   ar
    25    10     6    1
    26    25    19   ar
    27    17    11   ar
    28    24    26    1
@<TRIPOS>MOLECULE
*****
 26 28 0 0 0
SMALL
GASTEIGER

@<TRIPOS>ATOM
      1 C         138.1484  137.8760  166.1950 C.3     1  UNL1        0.1165
      2 N         138.7106  139.1074  165.5489 N.am    1  UNL1       -0.2605
      3 C         138.4391  139.3847  164.0999 C.3     1  UNL1        0.1165
      4 C         139.5444  140.0615  166.3517 C.2     1  UNL1        0.3079
      5 O         139.8159  139.7842  167.8007 O.2     1  UNL1       -0.2523
      6 N         140.1066  141.2929  165.7056 N.am    1  UNL1       -0.2540
      7 C         139.9209  141.7006  164.2741 C.3     1  UNL1        0.1221
      8 C         140.6528  142.9925  164.0613 C.2     1  UNL1       -0.0024
      9 C         141.2909  143.3833  165.3613 C.2     1  UNL1       -0.0047
     10 C         140.9534  142.3329  166.3776 C.3     1  UNL1        0.1218
     11 C         140.7326  143.7591  162.7744 C.ar    1  UNL1        0.0271
     12 C         139.9267  145.0116  162.5963 C.ar    1  UNL1        0.0316
     13 C         140.0065  145.7781  161.3094 C.ar    1  UNL1        0.1403
     14 F         139.2007  147.0307  161.1313 F       1  UNL1       -0.2042
     15 C         140.8922  145.2920  160.2007 C.ar    1  UNL1        0.0319
     16 C         141.6980  144.0395  160.3787 C.ar    1  UNL1        0.0319
     17 C         141.6182  143.2730  161.6656 C.ar    1  UNL1        0.1400
     18 F         142.4240  142.0204  161.8437 F       1  UNL1       -0.2042
     19 C         141.3865  142.3240  167.8137 C.ar    1  UNL1        0.0029
     20 C         142.8092  142.0048  168.1660 C.ar    1  UNL1       -0.0021
     21 C         143.2424  141.9959  169.6020 C.ar    1  UNL1        0.0028
     22 C         142.2528  142.3063  170.6858 C.ar    1  UNL1        0.0366
     23 C         140.8302  142.6255  170.3335 C.ar    1  UNL1        0.1334
     24 O         139.8407  142.9359  171.4173 O.3     1  UNL1       -0.5055
     25 C         140.3970  142.6344  168.8974 C.ar    1  UNL1        0.0343
     26 H         140.1113  142.9303  172.3143 H       1  UNL1        0.2922
@<TRIPOS>BOND
     1     1     2    1
     2     2     3    1
     3     2     4   am
     4     4     5    2
     5     4     6   am
     6     6     7    1
     7     7     8    1
     8     8    11    1
     9    11    12   ar
    10    12    13   ar
    11    13    14    1
    12    13    15   ar
    13    15    16   ar
    14    16    17   ar
    15    17    18    1
    16     8     9    2
    17     9    10    1
    18    10    19    1
    19    19    20   ar
    20    20    21   ar
    21    21    22   ar
    22    22    23   ar
    23    23    24    1
    24    23    25   ar
    25    10     6    1
    26    25    19   ar
    27    17    11   ar
    28    24    26    1
@<TRIPOS>MOLECULE
*****
 26 28 0 0 0
SMALL
GASTEIGER

@<TRIPOS>ATOM
      1 C         138.1329  137.9508  166.1907 C.3     1  UNL1        0.1165
      2 N         138.7288  139.1552  165.5242 N.am    1  UNL1       -0.2605
      3 C         138.4884  139.4002  164.0640 C.3     1  UNL1        0.1165
      4 C         139.5652  140.1147  166.3179 C.2     1  UNL1        0.3079
      5 O         139.8056  139.8697  167.7781 O.2     1  UNL1       -0.2523
      6 N         140.1611  141.3190  165.6514 N.am    1  UNL1       -0.2540
      7 C         140.0085  141.6933  164.2069 C.3     1  UNL1        0.1221
      8 C         140.7674  142.9662  163.9751 C.2     1  UNL1       -0.0024
      9 C         141.3891  143.3787  165.2764 C.2     1  UNL1       -0.0047
     10 C         141.0144  142.3608  166.3124 C.3     1  UNL1        0.1218
     11 C         140.8841  143.6981  162.6709 C.ar    1  UNL1        0.0271
     12 C         141.8497  143.2211  161.6270 C.ar    1  UNL1        0.0316
     13 C         141.9664  143.9530  160.3229 C.ar    1  UNL1        0.1403
     14 F         142.9321  143.4759  159.2788 F       1  UNL1       -0.2042
     15 C         141.1174  145.1619  160.0628 C.ar    1  UNL1        0.0319
     16 C         140.1518  145.6390  161.1067 C.ar    1  UNL1        0.0319
     17 C         140.0351  144.9071  162.4108 C.ar    1  UNL1        0.1400
     18 F         139.0694  145.3841  163.4549 F       1  UNL1       -0.2042
     19 C         141.4215  142.3809  167.7560 C.ar    1  UNL1        0.0029
     20 C         142.8371  142.0674  168.1405 C.ar    1  UNL1       -0.0021
     21 C         143.2442  142.0875  169.5839 C.ar    1  UNL1        0.0028
     22 C         142.2357  142.4212  170.6430 C.ar    1  UNL1        0.0366
     23 C         140.8202  142.7348  170.2586 C.ar    1  UNL1        0.1334
     24 O         139.8117  143.0685  171.3176 O.3     1  UNL1       -0.5055
     25 C         140.4130  142.7146  168.8150 C.ar    1  UNL1        0.0343
     26 H         140.0660  143.0811  172.2194 H       1  UNL1        0.2922
@<TRIPOS>BOND
     1     1     2    1
     2     2     3    1
     3     2     4   am
     4     4     5    2
     5     4     6   am
     6     6     7    1
     7     7     8    1
     8     8    11    1
     9    11    12   ar
    10    12    13   ar
    11    13    14    1
    12    13    15   ar
    13    15    16   ar
    14    16    17   ar
    15    17    18    1
    16     8     9    2
    17     9    10    1
    18    10    19    1
    19    19    20   ar
    20    20    21   ar
    21    21    22   ar
    22    22    23   ar
    23    23    24    1
    24    23    25   ar
    25    10     6    1
    26    25    19   ar
    27    17    11   ar
    28    24    26    1
@<TRIPOS>MOLECULE
*****
 26 28 0 0 0
SMALL
GASTEIGER

@<TRIPOS>ATOM
      1 C         137.0022  137.6795  167.3815 C.3     1  UNL1        0.1165
      2 N         138.1923  138.1796  166.6176 N.am    1  UNL1       -0.2605
      3 C         138.4755  137.6534  165.2417 C.3     1  UNL1        0.1165
      4 C         139.0991  139.2059  167.2295 C.2     1  UNL1        0.3079
      5 O         138.8158  139.7320  168.6054 O.2     1  UNL1       -0.2523
      6 N         140.2891  139.7060  166.4656 N.am    1  UNL1       -0.2540
      7 C         140.6974  139.2748  165.0881 C.3     1  UNL1        0.1221
      8 C         141.9405  140.0274  164.7162 C.2     1  UNL1       -0.0024
      9 C         142.3005  140.9237  165.8638 C.2     1  UNL1       -0.0047
     10 C         141.2800  140.7251  166.9450 C.3     1  UNL1        0.1218
     11 C         142.6917  139.9052  163.4235 C.ar    1  UNL1        0.0271
     12 C         143.2157  138.5702  162.9840 C.ar    1  UNL1        0.0316
     13 C         143.9668  138.4480  161.6914 C.ar    1  UNL1        0.1403
     14 F         144.4908  137.1130  161.2517 F       1  UNL1       -0.2042
     15 C         144.1939  139.6608  160.8384 C.ar    1  UNL1        0.0319
     16 C         143.6700  140.9957  161.2779 C.ar    1  UNL1        0.0319
     17 C         142.9188  141.1179  162.5705 C.ar    1  UNL1        0.1400
     18 F         142.3948  142.4529  163.0102 F       1  UNL1       -0.2042
     19 C         141.2546  141.4230  168.2725 C.ar    1  UNL1        0.0029
     20 C         140.6576  142.7942  168.3877 C.ar    1  UNL1       -0.0021
     21 C         140.6322  143.4921  169.7151 C.ar    1  UNL1        0.0028
     22 C         141.2040  142.8187  170.9275 C.ar    1  UNL1        0.0366
     23 C         141.8010  141.4475  170.8124 C.ar    1  UNL1        0.1334
     24 O         142.3727  140.7742  172.0247 O.3     1  UNL1       -0.5055
     25 C         141.8264  140.7496  169.4848 C.ar    1  UNL1        0.0343
     26 H         142.3569  141.2102  172.8539 H       1  UNL1        0.2922
@<TRIPOS>BOND
     1     1     2    1
     2     2     3    1
     3     2     4   am
     4     4     5    2
     5     4     6   am
     6     6     7    1
     7     7     8    1
     8     8    11    1
     9    11    12   ar
    10    12    13   ar
    11    13    14    1
    12    13    15   ar
    13    15    16   ar
    14    16    17   ar
    15    17    18    1
    16     8     9    2
    17     9    10    1
    18    10    19    1
    19    19    20   ar
    20    20    21   ar
    21    21    22   ar
    22    22    23   ar
    23    23    24    1
    24    23    25   ar
    25    10     6    1
    26    25    19   ar
    27    17    11   ar
    28    24    26    1
@<TRIPOS>MOLECULE
*****
 26 28 0 0 0
SMALL
GASTEIGER

@<TRIPOS>ATOM
      1 C         137.7609  137.7580  166.4588 C.3     1  UNL1        0.1165
      2 N         138.8430  138.6515  165.9289 N.am    1  UNL1       -0.2605
      3 C         139.2484  138.5647  164.4874 C.3     1  UNL1        0.1165
      4 C         139.5195  139.6319  166.8406 C.2     1  UNL1        0.3079
      5 O         139.1141  139.7187  168.2822 O.2     1  UNL1       -0.2523
      6 N         140.6016  140.5254  166.3107 N.am    1  UNL1       -0.2540
      7 C         141.1110  140.5521  164.9001 C.3     1  UNL1        0.1221
      8 C         142.1884  141.5923  164.8160 C.2     1  UNL1       -0.0024
      9 C         142.3450  142.2085  166.1746 C.2     1  UNL1       -0.0047
     10 C         141.3643  141.5491  167.0984 C.3     1  UNL1        0.1218
     11 C         142.9718  141.9530  163.5886 C.ar    1  UNL1        0.0271
     12 C         142.3281  142.7553  162.4969 C.ar    1  UNL1        0.0316
     13 C         143.1115  143.1159  161.2696 C.ar    1  UNL1        0.1403
     14 F         142.4678  143.9183  160.1778 F       1  UNL1       -0.2042
     15 C         144.5386  142.6743  161.1341 C.ar    1  UNL1        0.0319
     16 C         145.1823  141.8721  162.2259 C.ar    1  UNL1        0.0319
     17 C         144.3989  141.5114  163.4531 C.ar    1  UNL1        0.1400
     18 F         145.0426  140.7091  164.5450 F       1  UNL1       -0.2042
     19 C         141.1788  141.8590  168.5543 C.ar    1  UNL1        0.0029
     20 C         140.2765  142.9817  168.9731 C.ar    1  UNL1       -0.0021
     21 C         140.0910  143.2916  170.4289 C.ar    1  UNL1        0.0028
     22 C         140.8079  142.4787  171.4660 C.ar    1  UNL1        0.0366
     23 C         141.7101  141.3561  171.0472 C.ar    1  UNL1        0.1334
     24 O         142.4270  140.5433  172.0843 O.3     1  UNL1       -0.5055
     25 C         141.8956  141.0462  169.5913 C.ar    1  UNL1        0.0343
     26 H         142.3111  140.7369  172.9937 H       1  UNL1        0.2922
@<TRIPOS>BOND
     1     1     2    1
     2     2     3    1
     3     2     4   am
     4     4     5    2
     5     4     6   am
     6     6     7    1
     7     7     8    1
     8     8    11    1
     9    11    12   ar
    10    12    13   ar
    11    13    14    1
    12    13    15   ar
    13    15    16   ar
    14    16    17   ar
    15    17    18    1
    16     8     9    2
    17     9    10    1
    18    10    19    1
    19    19    20   ar
    20    20    21   ar
    21    21    22   ar
    22    22    23   ar
    23    23    24    1
    24    23    25   ar
    25    10     6    1
    26    25    19   ar
    27    17    11   ar
    28    24    26    1
@<TRIPOS>MOLECULE
*****
 26 28 0 0 0
SMALL
GASTEIGER

@<TRIPOS>ATOM
      1 C         138.2462  138.4492  162.0933 C.3     1  UNL1        0.1165
      2 N         138.9555  139.1850  163.1913 N.am    1  UNL1       -0.2605
      3 C         139.0889  138.5601  164.5485 C.3     1  UNL1        0.1165
      4 C         139.5313  140.5456  162.9322 C.2     1  UNL1        0.3079
      5 O         139.3978  141.1704  161.5750 O.2     1  UNL1       -0.2523
      6 N         140.2405  141.2813  164.0301 N.am    1  UNL1       -0.2540
      7 C         140.4508  140.7865  165.4304 C.3     1  UNL1        0.1221
      8 C         141.2043  141.8405  166.1864 C.2     1  UNL1       -0.0024
      9 C         141.4597  142.9868  165.2532 C.2     1  UNL1       -0.0047
     10 C         140.8641  142.6412  163.9206 C.3     1  UNL1        0.1218
     11 C         141.6279  141.7619  167.6232 C.ar    1  UNL1        0.0271
     12 C         142.9993  142.2163  168.0267 C.ar    1  UNL1        0.0316
     13 C         143.4229  142.1378  169.4634 C.ar    1  UNL1        0.1403
     14 F         144.7943  142.5922  169.8670 F       1  UNL1       -0.2042
     15 C         142.4751  141.6048  170.4967 C.ar    1  UNL1        0.0319
     16 C         141.1038  141.1504  170.0932 C.ar    1  UNL1        0.0319
     17 C         140.6802  141.2289  168.6565 C.ar    1  UNL1        0.1400
     18 F         139.3087  140.7745  168.2529 F       1  UNL1       -0.2042
     19 C         140.8878  143.5041  162.6938 C.ar    1  UNL1        0.0029
     20 C         141.8761  143.2259  161.6003 C.ar    1  UNL1       -0.0021
     21 C         141.9000  144.0887  160.3736 C.ar    1  UNL1        0.0028
     22 C         140.9353  145.2297  160.2404 C.ar    1  UNL1        0.0366
     23 C         139.9470  145.5079  161.3338 C.ar    1  UNL1        0.1334
     24 O         138.9825  146.6489  161.2006 O.3     1  UNL1       -0.5055
     25 C         139.9233  144.6451  162.5606 C.ar    1  UNL1        0.0343
     26 H         138.9973  147.1879  160.4343 H       1  UNL1        0.2922
@<TRIPOS>BOND
     1     1     2    1
     2     2     3    1
     3     2     4   am
     4     4     5    2
     5     4     6   am
     6     6     7    1
     7     7     8    1
     8     8    11    1
     9    11    12   ar
    10    12    13   ar
    11    13    14    1
    12    13    15   ar
    13    15    16   ar
    14    16    17   ar
    15    17    18    1
    16     8     9    2
    17     9    10    1
    18    10    19    1
    19    19    20   ar
    20    20    21   ar
    21    21    22   ar
    22    22    23   ar
    23    23    24    1
    24    23    25   ar
    25    10     6    1
    26    25    19   ar
    27    17    11   ar
    28    24    26    1
@<TRIPOS>MOLECULE
*****
 26 28 0 0 0
SMALL
GASTEIGER

@<TRIPOS>ATOM
      1 C         144.2141  139.8953  161.3634 C.3     1  UNL1        0.1165
      2 N         143.7685  140.1599  162.7710 N.am    1  UNL1       -0.2605
      3 C         144.2587  139.2883  163.8891 C.3     1  UNL1        0.1165
      4 C         142.8329  141.2960  163.0605 C.2     1  UNL1        0.3079
      5 O         142.3427  142.1675  161.9424 O.2     1  UNL1       -0.2523
      6 N         142.3874  141.5605  164.4682 N.am    1  UNL1       -0.2540
      7 C         142.7914  140.7783  165.6826 C.3     1  UNL1        0.1221
      8 C         142.1133  141.3881  166.8736 C.2     1  UNL1       -0.0024
      9 C         141.2901  142.5472  166.3952 C.2     1  UNL1       -0.0047
     10 C         141.4595  142.6538  164.9086 C.3     1  UNL1        0.1218
     11 C         142.2368  140.9208  168.2936 C.ar    1  UNL1        0.0271
     12 C         142.5117  139.4756  168.5864 C.ar    1  UNL1        0.0316
     13 C         142.6351  139.0084  170.0063 C.ar    1  UNL1        0.1403
     14 F         142.9100  137.5631  170.2992 F       1  UNL1       -0.2042
     15 C         142.4836  139.9863  171.1336 C.ar    1  UNL1        0.0319
     16 C         142.2087  141.4315  170.8408 C.ar    1  UNL1        0.0319
     17 C         142.0853  141.8988  169.4208 C.ar    1  UNL1        0.1400
     18 F         141.8103  143.3441  169.1280 F       1  UNL1       -0.2042
     19 C         140.8143  143.6744  164.0186 C.ar    1  UNL1        0.0029
     20 C         141.6174  144.8281  163.4952 C.ar    1  UNL1       -0.0021
     21 C         140.9723  145.8487  162.6053 C.ar    1  UNL1        0.0028
     22 C         139.5238  145.7156  162.2388 C.ar    1  UNL1        0.0366
     23 C         138.7206  144.5620  162.7621 C.ar    1  UNL1        0.1334
     24 O         137.2722  144.4290  162.3955 O.3     1  UNL1       -0.5055
     25 C         139.3659  143.5414  163.6520 C.ar    1  UNL1        0.0343
     26 H         136.8692  145.0666  161.8396 H       1  UNL1        0.2922
@<TRIPOS>BOND
     1     1     2    1
     2     2     3    1
     3     2     4   am
     4     4     5    2
     5     4     6   am
     6     6     7    1
     7     7     8    1
     8     8    11    1
     9    11    12   ar
    10    12    13   ar
    11    13    14    1
    12    13    15   ar
    13    15    16   ar
    14    16    17   ar
    15    17    18    1
    16     8     9    2
    17     9    10    1
    18    10    19    1
    19    19    20   ar
    20    20    21   ar
    21    21    22   ar
    22    22    23   ar
    23    23    24    1
    24    23    25   ar
    25    10     6    1
    26    25    19   ar
    27    17    11   ar
    28    24    26    1
@<TRIPOS>MOLECULE
*****
 26 28 0 0 0
SMALL
GASTEIGER

@<TRIPOS>ATOM
      1 C         144.9866  143.8984  165.6834 C.3     1  UNL1        0.1165
      2 N         143.7680  143.1585  165.2171 N.am    1  UNL1       -0.2605
      3 C         143.4480  143.0877  163.7533 C.3     1  UNL1        0.1165
      4 C         142.8694  142.4894  166.2145 C.2     1  UNL1        0.3079
      5 O         143.1893  142.5603  167.6782 O.2     1  UNL1       -0.2523
      6 N         141.6508  141.7495  165.7481 N.am    1  UNL1       -0.2540
      7 C         141.2047  141.5940  164.3244 C.3     1  UNL1        0.1221
      8 C         139.9425  140.7836  164.3200 C.2     1  UNL1       -0.0024
      9 C         139.6084  140.4382  165.7409 C.2     1  UNL1       -0.0047
     10 C         140.6642  141.0352  166.6235 C.3     1  UNL1        0.1218
     11 C         139.1530  140.3880  163.1074 C.ar    1  UNL1        0.0271
     12 C         138.9884  141.3539  161.9717 C.ar    1  UNL1        0.0316
     13 C         138.1989  140.9582  160.7592 C.ar    1  UNL1        0.1403
     14 F         138.0343  141.9241  159.6233 F       1  UNL1       -0.2042
     15 C         137.5741  139.5968  160.6824 C.ar    1  UNL1        0.0319
     16 C         137.7387  138.6309  161.8182 C.ar    1  UNL1        0.0319
     17 C         138.5281  139.0265  163.0306 C.ar    1  UNL1        0.1400
     18 F         138.6928  138.0606  164.1665 F       1  UNL1       -0.2042
     19 C         140.7230  140.9353  168.1191 C.ar    1  UNL1        0.0029
     20 C         141.4103  139.7698  168.7665 C.ar    1  UNL1       -0.0021
     21 C         141.4692  139.6699  170.2619 C.ar    1  UNL1        0.0028
     22 C         140.8406  140.7356  171.1100 C.ar    1  UNL1        0.0366
     23 C         140.1533  141.9011  170.4627 C.ar    1  UNL1        0.1334
     24 O         139.5248  142.9668  171.3108 O.3     1  UNL1       -0.5055
     25 C         140.0945  142.0010  168.9672 C.ar    1  UNL1        0.0343
     26 H         139.5616  142.9044  172.2450 H       1  UNL1        0.2922
@<TRIPOS>BOND
     1     1     2    1
     2     2     3    1
     3     2     4   am
     4     4     5    2
     5     4     6   am
     6     6     7    1
     7     7     8    1
     8     8    11    1
     9    11    12   ar
    10    12    13   ar
    11    13    14    1
    12    13    15   ar
    13    15    16   ar
    14    16    17   ar
    15    17    18    1
    16     8     9    2
    17     9    10    1
    18    10    19    1
    19    19    20   ar
    20    20    21   ar
    21    21    22   ar
    22    22    23   ar
    23    23    24    1
    24    23    25   ar
    25    10     6    1
    26    25    19   ar
    27    17    11   ar
    28    24    26    1
@<TRIPOS>MOLECULE
*****
 26 28 0 0 0
SMALL
GASTEIGER

@<TRIPOS>ATOM
      1 C         137.4490  137.8715  167.0220 C.3     1  UNL1        0.1165
      2 N         138.5382  138.5025  166.2064 N.am    1  UNL1       -0.2605
      3 C         138.6761  138.1663  164.7511 C.3     1  UNL1        0.1165
      4 C         139.4896  139.4698  166.8462 C.2     1  UNL1        0.3079
      5 O         139.3517  139.8061  168.3015 O.2     1  UNL1       -0.2523
      6 N         140.5788  140.1009  166.0305 N.am    1  UNL1       -0.2540
      7 C         140.8391  139.8630  164.5726 C.3     1  UNL1        0.1221
      8 C         142.0202  140.6958  164.1707 C.2     1  UNL1       -0.0024
      9 C         142.4899  141.4484  165.3802 C.2     1  UNL1       -0.0047
     10 C         141.5991  141.0807  166.5297 C.3     1  UNL1        0.1218
     11 C         142.6254  140.7640  162.7998 C.ar    1  UNL1        0.0271
     12 C         142.5993  142.0520  162.0316 C.ar    1  UNL1        0.0316
     13 C         143.2044  142.1201  160.6608 C.ar    1  UNL1        0.1403
     14 F         143.1783  143.4083  159.8926 F       1  UNL1       -0.2042
     15 C         143.8357  140.9002  160.0582 C.ar    1  UNL1        0.0319
     16 C         143.8619  139.6121  160.8264 C.ar    1  UNL1        0.0319
     17 C         143.2567  139.5440  162.1972 C.ar    1  UNL1        0.1400
     18 F         143.2829  138.2559  162.9654 F       1  UNL1       -0.2042
     19 C         141.7092  141.6015  167.9321 C.ar    1  UNL1        0.0029
     20 C         142.6346  140.9376  168.9082 C.ar    1  UNL1       -0.0021
     21 C         142.7448  141.4582  170.3105 C.ar    1  UNL1        0.0028
     22 C         141.9293  142.6430  170.7368 C.ar    1  UNL1        0.0366
     23 C         141.0039  143.3069  169.7608 C.ar    1  UNL1        0.1334
     24 O         140.1886  144.4915  170.1871 O.3     1  UNL1       -0.5055
     25 C         140.8938  142.7861  168.3584 C.ar    1  UNL1        0.0343
     26 H         140.2573  144.8168  171.0631 H       1  UNL1        0.2922
@<TRIPOS>BOND
     1     1     2    1
     2     2     3    1
     3     2     4   am
     4     4     5    2
     5     4     6   am
     6     6     7    1
     7     7     8    1
     8     8    11    1
     9    11    12   ar
    10    12    13   ar
    11    13    14    1
    12    13    15   ar
    13    15    16   ar
    14    16    17   ar
    15    17    18    1
    16     8     9    2
    17     9    10    1
    18    10    19    1
    19    19    20   ar
    20    20    21   ar
    21    21    22   ar
    22    22    23   ar
    23    23    24    1
    24    23    25   ar
    25    10     6    1
    26    25    19   ar
    27    17    11   ar
    28    24    26    1
