@<TRIPOS>MOLECULE
*****
 39 42 0 0 0
SMALL
GASTEIGER

@<TRIPOS>ATOM
      1 C         140.7601  143.3939  158.2025 C.3     1  UNL1        0.1204
      2 N         140.2197  142.4123  159.1997 N.am    1  UNL1       -0.2985
      3 C         140.9133  141.0993  159.4114 C.2     1  UNL1        0.2469
      4 O         142.1475  140.7678  158.6258 O.2     1  UNL1       -0.2701
      5 H         139.4096  142.6298  159.7153 H       1  UNL1        0.1498
      6 C         140.3729  140.1177  160.4085 C.2     1  UNL1        0.0665
      7 C         139.0813  139.4055  160.1356 C.2     1  UNL1        0.0931
      8 N         138.5408  138.4239  161.1328 N.am    1  UNL1       -0.1740
      9 C         139.2920  138.1545  162.4029 C.2     1  UNL1        0.2687
     10 O         138.7515  137.1729  163.4001 O.2     1  UNL1       -0.2680
     11 C         140.5836  138.8667  162.6759 C.2     1  UNL1        0.0520
     12 C         141.3347  138.5973  163.9460 C.2     1  UNL1        0.0053
     13 C         142.6263  139.3096  164.2189 C.2     1  UNL1        0.0144
     14 C         143.1668  140.2912  163.2217 C.2     1  UNL1        0.0878
     15 C         142.4156  140.5605  161.9516 C.3     1  UNL1        0.0716
     16 C         141.1241  139.8483  161.6787 C.2     1  UNL1       -0.0063
     17 S         144.4584  141.0034  163.4947 S.O2    1  UNL1        0.0070
     18 C         145.7500  141.7156  163.7676 C.3     1  UNL1        0.1812
     19 O         144.9489  140.6389  162.1249 O.2     1  UNL1       -0.1689
     20 O         143.9680  141.3679  164.8645 O.2     1  UNL1       -0.1689
     21 C         141.6933  144.4800  158.6493 C.3     1  UNL1        0.1459
     22 O         143.0770  144.5626  158.0764 O.3     1  UNL1       -0.3813
     23 H         143.2055  143.8449  157.4367 H       1  UNL1        0.2105
     24 C         141.2426  145.4836  159.6690 C.3     1  UNL1        0.1034
     25 C         140.4952  144.1961  163.9156 C.3     1  UNL1        0.1687
     26 C         139.4759  145.0261  163.1931 C.3     1  UNL1        0.0609
     27 C         139.7251  145.4553  161.7775 C.3     1  UNL1        0.0759
     28 N         140.9935  145.0544  161.0845 N.3     1  UNL1       -0.2704
     29 C         142.0128  144.2244  161.8070 C.3     1  UNL1        0.0759
     30 C         141.7637  143.7952  163.2225 C.3     1  UNL1        0.0609
     31 O         140.2461  143.7669  165.3311 O.3     1  UNL1       -0.4794
     32 C         141.2270  142.2253  167.7105 C.3     1  UNL1        0.0342
     33 C         140.1912  141.6279  166.8048 C.ar    1  UNL1        0.0129
     34 C         139.6458  140.2598  167.0888 C.ar    1  UNL1        0.0101
     35 C         138.6101  139.6624  166.1831 C.ar    1  UNL1        0.0576
     36 CL        138.0647  138.2942  166.4671 Cl      1  UNL1       -0.0823
     37 C         138.1197  140.4331  164.9934 C.ar    1  UNL1        0.0145
     38 C         138.6651  141.8013  164.7094 C.ar    1  UNL1        0.0374
     39 C         139.7008  142.3987  165.6151 C.ar    1  UNL1        0.1344
@<TRIPOS>BOND
     1    32    33    1
     2    33    34   ar
     3    34    35   ar
     4    35    36    1
     5    35    37   ar
     6    37    38   ar
     7    38    39   ar
     8    39    31    1
     9    31    25    1
    10    25    26    1
    11    26    27    1
    12    27    28    1
    13    28    24    1
    14    24    21    1
    15    21    22    1
    16    21     1    1
    17     1     2    1
    18     2     3   am
    19     3     4    2
    20     3     6    1
    21     6     7    1
    22     7     8    2
    23     8     9    1
    24     9    10    2
    25     9    11    1
    26    11    12    2
    27    12    13    1
    28    13    14    2
    29    14    17    1
    30    17    18    1
    31    17    19    2
    32    17    20    2
    33    14    15    1
    34    15    16    1
    35    28    29    1
    36    29    30    1
    37    39    33   ar
    38    30    25    1
    39    16     6    2
    40    16    11    1
    41    22    23    1
    42     2     5    1
@<TRIPOS>MOLECULE
*****
 39 42 0 0 0
SMALL
GASTEIGER

@<TRIPOS>ATOM
      1 C         139.6537  139.2495  158.9455 C.3     1  UNL1        0.1204
      2 N         139.8016  139.2467  160.4382 N.am    1  UNL1       -0.2985
      3 C         138.6256  139.5763  161.3090 C.2     1  UNL1        0.2469
      4 O         137.3016  139.9088  160.6870 O.2     1  UNL1       -0.2701
      5 H         140.6705  139.0285  160.8464 H       1  UNL1        0.1498
      6 C         138.7734  139.5736  162.8016 C.2     1  UNL1        0.0665
      7 C         138.6428  138.2895  163.5659 C.2     1  UNL1        0.0931
      8 N         138.7907  138.2867  165.0586 N.am    1  UNL1       -0.1740
      9 C         139.0691  139.5680  165.7870 C.2     1  UNL1        0.2687
     10 O         139.2170  139.5652  167.2797 O.2     1  UNL1       -0.2680
     11 C         139.1998  140.8522  165.0228 C.2     1  UNL1        0.0520
     12 C         139.4782  142.1334  165.7513 C.2     1  UNL1        0.0053
     13 C         139.6089  143.4175  164.9871 C.2     1  UNL1        0.0144
     14 C         139.4610  143.4203  163.4944 C.2     1  UNL1        0.0878
     15 C         139.1825  142.1390  162.7659 C.3     1  UNL1        0.0716
     16 C         139.0519  140.8549  163.5301 C.2     1  UNL1       -0.0063
     17 S         139.5916  144.7044  162.7302 S.O2    1  UNL1        0.0070
     18 C         139.7222  145.9885  161.9660 C.3     1  UNL1        0.1812
     19 O         138.4021  144.3295  161.8969 O.2     1  UNL1       -0.1689
     20 O         140.7812  145.0793  163.5634 O.2     1  UNL1       -0.1689
     21 C         140.4785  138.3172  158.1084 C.3     1  UNL1        0.1459
     22 O         139.8096  137.2498  157.2940 O.3     1  UNL1       -0.3813
     23 H         138.8493  137.3003  157.4212 H       1  UNL1        0.2105
     24 C         141.9722  138.4524  158.0856 C.3     1  UNL1        0.1034
     25 C         144.1949  139.4937  161.8573 C.3     1  UNL1        0.1687
     26 C         143.7459  138.0829  161.6166 C.3     1  UNL1        0.0609
     27 C         143.0050  137.7358  160.3593 C.3     1  UNL1        0.0759
     28 N         142.7131  138.7995  159.3428 N.3     1  UNL1       -0.2704
     29 C         143.1621  140.2104  159.5836 C.3     1  UNL1        0.0759
     30 C         143.9029  140.5575  160.8408 C.3     1  UNL1        0.0609
     31 O         144.9357  139.8408  163.1145 O.3     1  UNL1       -0.4794
     32 C         144.5534  142.6984  163.9443 C.3     1  UNL1        0.0342
     33 C         143.9857  141.5915  164.7826 C.ar    1  UNL1        0.0129
     34 C         143.2268  141.9135  166.0357 C.ar    1  UNL1        0.0101
     35 C         142.6590  140.8068  166.8740 C.ar    1  UNL1        0.0576
     36 CL        141.9001  141.1288  168.1272 Cl      1  UNL1       -0.0823
     37 C         142.8502  139.3781  166.4591 C.ar    1  UNL1        0.0145
     38 C         143.6091  139.0561  165.2060 C.ar    1  UNL1        0.0374
     39 C         144.1768  140.1628  164.3677 C.ar    1  UNL1        0.1344
@<TRIPOS>BOND
     1    32    33    1
     2    33    34   ar
     3    34    35   ar
     4    35    36    1
     5    35    37   ar
     6    37    38   ar
     7    38    39   ar
     8    39    31    1
     9    31    25    1
    10    25    26    1
    11    26    27    1
    12    27    28    1
    13    28    24    1
    14    24    21    1
    15    21    22    1
    16    21     1    1
    17     1     2    1
    18     2     3   am
    19     3     4    2
    20     3     6    1
    21     6     7    1
    22     7     8    2
    23     8     9    1
    24     9    10    2
    25     9    11    1
    26    11    12    2
    27    12    13    1
    28    13    14    2
    29    14    17    1
    30    17    18    1
    31    17    19    2
    32    17    20    2
    33    14    15    1
    34    15    16    1
    35    28    29    1
    36    29    30    1
    37    39    33   ar
    38    30    25    1
    39    16     6    2
    40    16    11    1
    41    22    23    1
    42     2     5    1
@<TRIPOS>MOLECULE
*****
 39 42 0 0 0
SMALL
GASTEIGER

@<TRIPOS>ATOM
      1 C         144.1684  142.4403  159.9469 C.3     1  UNL1        0.1204
      2 N         142.9901  142.7639  160.8169 N.am    1  UNL1       -0.2985
      3 C         143.1498  143.6995  161.9784 C.2     1  UNL1        0.2469
      4 O         144.4879  144.3116  162.2699 O.2     1  UNL1       -0.2701
      5 H         142.1118  142.3622  160.6256 H       1  UNL1        0.1498
      6 C         141.9715  144.0231  162.8483 C.2     1  UNL1        0.0665
      7 C         141.1276  145.2269  162.5507 C.2     1  UNL1        0.0931
      8 N         139.9493  145.5505  163.4207 N.am    1  UNL1       -0.1740
      9 C         139.6148  144.6703  164.5883 C.2     1  UNL1        0.2687
     10 O         138.4365  144.9939  165.4582 O.2     1  UNL1       -0.2680
     11 C         140.4587  143.4664  164.8859 C.2     1  UNL1        0.0520
     12 C         140.1242  142.5861  166.0535 C.2     1  UNL1        0.0053
     13 C         140.9681  141.3823  166.3511 C.2     1  UNL1        0.0144
     14 C         142.1464  141.0587  165.4811 C.2     1  UNL1        0.0878
     15 C         142.4809  141.9389  164.3136 C.3     1  UNL1        0.0716
     16 C         141.6370  143.1428  164.0160 C.2     1  UNL1       -0.0063
     17 S         142.9903  139.8548  165.7788 S.O2    1  UNL1        0.0070
     18 C         143.8341  138.6509  166.0764 C.3     1  UNL1        0.1812
     19 O         144.0853  140.4091  164.9165 O.2     1  UNL1       -0.1689
     20 O         141.8953  139.3004  166.6411 O.2     1  UNL1       -0.1689
     21 C         143.9687  142.1637  158.4862 C.3     1  UNL1        0.1459
     22 O         144.4191  143.1656  157.4648 O.3     1  UNL1       -0.3813
     23 H         144.8154  143.9289  157.9134 H       1  UNL1        0.2105
     24 C         143.3185  140.8853  158.0469 C.3     1  UNL1        0.1034
     25 C         139.7450  139.2975  160.2738 C.3     1  UNL1        0.1687
     26 C         141.1065  138.7241  160.5340 C.3     1  UNL1        0.0609
     27 C         142.2977  139.2534  159.7917 C.3     1  UNL1        0.0759
     28 N         142.1274  140.3560  158.7892 N.3     1  UNL1       -0.2704
     29 C         140.7660  140.9294  158.5289 C.3     1  UNL1        0.0759
     30 C         139.5748  140.4002  159.2712 C.3     1  UNL1        0.0609
     31 O         138.5539  138.7682  161.0160 O.3     1  UNL1       -0.4794
     32 C         137.6020  141.2563  162.3956 C.3     1  UNL1        0.0342
     33 C         138.0408  140.0715  163.2042 C.ar    1  UNL1        0.0129
     34 C         138.0037  140.1308  164.7026 C.ar    1  UNL1        0.0101
     35 C         138.4425  138.9461  165.5111 C.ar    1  UNL1        0.0576
     36 CL        138.4054  139.0054  167.0095 Cl      1  UNL1       -0.0823
     37 C         138.9185  137.7021  164.8213 C.ar    1  UNL1        0.0145
     38 C         138.9556  137.6428  163.3229 C.ar    1  UNL1        0.0374
     39 C         138.5168  138.8275  162.5144 C.ar    1  UNL1        0.1344
@<TRIPOS>BOND
     1    32    33    1
     2    33    34   ar
     3    34    35   ar
     4    35    36    1
     5    35    37   ar
     6    37    38   ar
     7    38    39   ar
     8    39    31    1
     9    31    25    1
    10    25    26    1
    11    26    27    1
    12    27    28    1
    13    28    24    1
    14    24    21    1
    15    21    22    1
    16    21     1    1
    17     1     2    1
    18     2     3   am
    19     3     4    2
    20     3     6    1
    21     6     7    1
    22     7     8    2
    23     8     9    1
    24     9    10    2
    25     9    11    1
    26    11    12    2
    27    12    13    1
    28    13    14    2
    29    14    17    1
    30    17    18    1
    31    17    19    2
    32    17    20    2
    33    14    15    1
    34    15    16    1
    35    28    29    1
    36    29    30    1
    37    39    33   ar
    38    30    25    1
    39    16     6    2
    40    16    11    1
    41    22    23    1
    42     2     5    1
@<TRIPOS>MOLECULE
*****
 39 42 0 0 0
SMALL
GASTEIGER

@<TRIPOS>ATOM
      1 C         139.7104  140.0322  158.7959 C.3     1  UNL1        0.1204
      2 N         140.8120  140.1374  159.8085 N.am    1  UNL1       -0.2985
      3 C         141.4885  141.4549  160.0466 C.2     1  UNL1        0.2469
      4 O         141.0634  142.6671  159.2720 O.2     1  UNL1       -0.2701
      5 H         141.0910  139.3419  160.3169 H       1  UNL1        0.1498
      6 C         142.5901  141.5601  161.0592 C.2     1  UNL1        0.0665
      7 C         143.9632  141.0547  160.7290 C.2     1  UNL1        0.0931
      8 N         145.0648  141.1599  161.7416 N.am    1  UNL1       -0.1740
      9 C         144.7933  141.7707  163.0844 C.2     1  UNL1        0.2687
     10 O         145.8949  141.8760  164.0971 O.2     1  UNL1       -0.2680
     11 C         143.4201  142.2763  163.4147 C.2     1  UNL1        0.0520
     12 C         143.1487  142.8871  164.7575 C.2     1  UNL1        0.0053
     13 C         141.7756  143.3925  165.0877 C.2     1  UNL1        0.0144
     14 C         140.6740  143.2873  164.0751 C.2     1  UNL1        0.0878
     15 C         140.9455  142.6765  162.7323 C.3     1  UNL1        0.0716
     16 C         142.3185  142.1710  162.4021 C.2     1  UNL1       -0.0063
     17 S         139.3008  143.7928  164.4054 S.O2    1  UNL1        0.0070
     18 C         137.9278  144.2983  164.7356 C.3     1  UNL1        0.1812
     19 O         138.9847  143.8897  162.9423 O.2     1  UNL1       -0.1689
     20 O         139.6170  143.6959  165.8684 O.2     1  UNL1       -0.1689
     21 C         138.3752  140.6574  159.0724 C.3     1  UNL1        0.1459
     22 O         138.0070  141.9579  158.4220 O.3     1  UNL1       -0.3813
     23 H         138.7379  142.2559  157.8582 H       1  UNL1        0.2105
     24 C         137.4083  139.9822  159.9993 C.3     1  UNL1        0.1034
     25 C         138.7104  138.8089  164.1440 C.3     1  UNL1        0.1687
     26 C         138.2440  140.2084  163.8724 C.3     1  UNL1        0.0609
     27 C         137.8099  140.5995  162.4908 C.3     1  UNL1        0.0759
     28 N         137.8424  139.5911  161.3809 N.3     1  UNL1       -0.2704
     29 C         138.3088  138.1915  161.6524 C.3     1  UNL1        0.0759
     30 C         138.7428  137.8004  163.0339 C.3     1  UNL1        0.0609
     31 O         139.1444  138.4178  165.5255 O.3     1  UNL1       -0.4794
     32 C         142.0900  138.1622  165.0172 C.3     1  UNL1        0.0342
     33 C         141.5860  139.1520  166.0254 C.ar    1  UNL1        0.0129
     34 C         142.5547  140.0139  166.7794 C.ar    1  UNL1        0.0101
     35 C         142.0507  141.0037  167.7875 C.ar    1  UNL1        0.0576
     36 CL        143.0195  141.8657  168.5415 Cl      1  UNL1       -0.0823
     37 C         140.5780  141.1315  168.0416 C.ar    1  UNL1        0.0145
     38 C         139.6092  140.2695  167.2876 C.ar    1  UNL1        0.0374
     39 C         140.1132  139.2798  166.2795 C.ar    1  UNL1        0.1344
@<TRIPOS>BOND
     1    32    33    1
     2    33    34   ar
     3    34    35   ar
     4    35    36    1
     5    35    37   ar
     6    37    38   ar
     7    38    39   ar
     8    39    31    1
     9    31    25    1
    10    25    26    1
    11    26    27    1
    12    27    28    1
    13    28    24    1
    14    24    21    1
    15    21    22    1
    16    21     1    1
    17     1     2    1
    18     2     3   am
    19     3     4    2
    20     3     6    1
    21     6     7    1
    22     7     8    2
    23     8     9    1
    24     9    10    2
    25     9    11    1
    26    11    12    2
    27    12    13    1
    28    13    14    2
    29    14    17    1
    30    17    18    1
    31    17    19    2
    32    17    20    2
    33    14    15    1
    34    15    16    1
    35    28    29    1
    36    29    30    1
    37    39    33   ar
    38    30    25    1
    39    16     6    2
    40    16    11    1
    41    22    23    1
    42     2     5    1
@<TRIPOS>MOLECULE
*****
 39 42 0 0 0
SMALL
GASTEIGER

@<TRIPOS>ATOM
      1 C         140.0085  142.7302  158.2529 C.3     1  UNL1        0.1204
      2 N         140.9940  142.2548  159.2790 N.am    1  UNL1       -0.2985
      3 C         141.9607  143.2222  159.8951 C.2     1  UNL1        0.2469
      4 O         141.9420  144.6650  159.4851 O.2     1  UNL1       -0.2701
      5 H         141.0063  141.3079  159.5481 H       1  UNL1        0.1498
      6 C         142.9462  142.7468  160.9212 C.2     1  UNL1        0.0665
      7 C         144.2659  142.1807  160.4878 C.2     1  UNL1        0.0931
      8 N         145.2514  141.7054  161.5139 N.am    1  UNL1       -0.1740
      9 C         144.9172  141.7961  162.9733 C.2     1  UNL1        0.2687
     10 O         145.9027  141.3208  163.9994 O.2     1  UNL1       -0.2680
     11 C         143.5974  142.3623  163.4068 C.2     1  UNL1        0.0520
     12 C         143.2632  142.4531  164.8662 C.2     1  UNL1        0.0053
     13 C         141.9435  143.0192  165.2996 C.2     1  UNL1        0.0144
     14 C         140.9580  143.4945  164.2735 C.2     1  UNL1        0.0878
     15 C         141.2922  143.4038  162.8141 C.3     1  UNL1        0.0716
     16 C         142.6119  142.8376  162.3807 C.2     1  UNL1       -0.0063
     17 S         139.6383  144.0607  164.7069 S.O2    1  UNL1        0.0070
     18 C         138.3186  144.6268  165.1403 C.3     1  UNL1        0.1812
     19 O         139.6730  145.0224  163.5564 O.2     1  UNL1       -0.1689
     20 O         139.6035  143.0989  165.8575 O.2     1  UNL1       -0.1689
     21 C         138.7632  141.9378  157.9855 C.3     1  UNL1        0.1459
     22 O         137.4897  142.6421  157.6223 O.3     1  UNL1       -0.3813
     23 H         137.6435  143.5996  157.6045 H       1  UNL1        0.2105
     24 C         138.7916  140.4411  158.0812 C.3     1  UNL1        0.1034
     25 C         139.0033  138.4477  162.1100 C.3     1  UNL1        0.1687
     26 C         140.0840  138.2092  161.0975 C.3     1  UNL1        0.0609
     27 C         140.0134  138.8737  159.7546 C.3     1  UNL1        0.0759
     28 N         138.8622  139.7767  159.4241 N.3     1  UNL1       -0.2704
     29 C         137.7814  140.0152  160.4366 C.3     1  UNL1        0.0759
     30 C         137.8520  139.3507  161.7795 C.3     1  UNL1        0.0609
     31 O         139.0738  137.7833  163.4530 O.3     1  UNL1       -0.4794
     32 C         138.1700  139.7454  165.5346 C.3     1  UNL1        0.0342
     33 C         139.5897  139.2612  165.5265 C.ar    1  UNL1        0.0129
     34 C         140.5575  139.7581  166.5592 C.ar    1  UNL1        0.0101
     35 C         141.9772  139.2739  166.5511 C.ar    1  UNL1        0.0576
     36 CL        142.9449  139.7708  167.5839 Cl      1  UNL1       -0.0823
     37 C         142.4290  138.2929  165.5103 C.ar    1  UNL1        0.0145
     38 C         141.4613  137.7960  164.4776 C.ar    1  UNL1        0.0374
     39 C         140.0416  138.2802  164.4857 C.ar    1  UNL1        0.1344
@<TRIPOS>BOND
     1    32    33    1
     2    33    34   ar
     3    34    35   ar
     4    35    36    1
     5    35    37   ar
     6    37    38   ar
     7    38    39   ar
     8    39    31    1
     9    31    25    1
    10    25    26    1
    11    26    27    1
    12    27    28    1
    13    28    24    1
    14    24    21    1
    15    21    22    1
    16    21     1    1
    17     1     2    1
    18     2     3   am
    19     3     4    2
    20     3     6    1
    21     6     7    1
    22     7     8    2
    23     8     9    1
    24     9    10    2
    25     9    11    1
    26    11    12    2
    27    12    13    1
    28    13    14    2
    29    14    17    1
    30    17    18    1
    31    17    19    2
    32    17    20    2
    33    14    15    1
    34    15    16    1
    35    28    29    1
    36    29    30    1
    37    39    33   ar
    38    30    25    1
    39    16     6    2
    40    16    11    1
    41    22    23    1
    42     2     5    1
@<TRIPOS>MOLECULE
*****
 39 42 0 0 0
SMALL
GASTEIGER

@<TRIPOS>ATOM
      1 C         142.0642  144.2618  158.5114 C.3     1  UNL1        0.1204
      2 N         142.7442  143.6309  159.6902 N.am    1  UNL1       -0.2985
      3 C         142.6635  142.1475  159.8972 C.2     1  UNL1        0.2469
      4 O         141.9027  141.2949  158.9254 O.2     1  UNL1       -0.2701
      5 H         143.2435  144.1905  160.3280 H       1  UNL1        0.1498
      6 C         143.3434  141.5166  161.0761 C.2     1  UNL1        0.0665
      7 C         144.7324  141.9378  161.4546 C.2     1  UNL1        0.0931
      8 N         145.4124  141.3069  162.6335 N.am    1  UNL1       -0.1740
      9 C         144.7034  140.2549  163.4337 C.2     1  UNL1        0.2687
     10 O         145.3834  139.6240  164.6126 O.2     1  UNL1       -0.2680
     11 C         143.3144  139.8336  163.0552 C.2     1  UNL1        0.0520
     12 C         142.6054  138.7816  163.8554 C.2     1  UNL1        0.0053
     13 C         141.2164  138.3604  163.4769 C.2     1  UNL1        0.0144
     14 C         140.5365  138.9913  162.2980 C.2     1  UNL1        0.0878
     15 C         141.2454  140.0433  161.4978 C.3     1  UNL1        0.0716
     16 C         142.6344  140.4645  161.8764 C.2     1  UNL1       -0.0063
     17 S         139.1474  138.5700  161.9195 S.O2    1  UNL1        0.0070
     18 C         137.7585  138.1487  161.5410 C.3     1  UNL1        0.1812
     19 O         139.1652  137.5356  163.0056 O.2     1  UNL1       -0.1689
     20 O         139.1297  139.6044  160.8334 O.2     1  UNL1       -0.1689
     21 C         140.6148  144.6391  158.5950 C.3     1  UNL1        0.1459
     22 O         139.6597  144.1880  157.5300 O.3     1  UNL1       -0.3813
     23 H         140.1380  143.6664  156.8666 H       1  UNL1        0.2105
     24 C         140.1205  145.4674  159.7437 C.3     1  UNL1        0.1034
     25 C         139.0478  143.4943  163.6432 C.3     1  UNL1        0.1687
     26 C         139.4246  144.9460  163.6159 C.3     1  UNL1        0.0609
     27 C         139.7822  145.6037  162.3160 C.3     1  UNL1        0.0759
     28 N         139.7629  144.8097  161.0435 N.3     1  UNL1       -0.2704
     29 C         139.3861  143.3581  161.0708 C.3     1  UNL1        0.0759
     30 C         139.0285  142.7004  162.3706 C.3     1  UNL1        0.0609
     31 O         138.6902  142.8366  164.9430 O.3     1  UNL1       -0.4794
     32 C         138.1791  139.9247  165.4526 C.3     1  UNL1        0.0342
     33 C         139.4542  140.5567  165.9268 C.ar    1  UNL1        0.0129
     34 C         140.4737  139.7326  166.6559 C.ar    1  UNL1        0.0101
     35 C         141.7488  140.3645  167.1301 C.ar    1  UNL1        0.0576
     36 CL        142.7683  139.5405  167.8591 Cl      1  UNL1       -0.0823
     37 C         142.0043  141.8204  166.8753 C.ar    1  UNL1        0.0145
     38 C         140.9847  142.6445  166.1463 C.ar    1  UNL1        0.0374
     39 C         139.7097  142.0126  165.6720 C.ar    1  UNL1        0.1344
@<TRIPOS>BOND
     1    32    33    1
     2    33    34   ar
     3    34    35   ar
     4    35    36    1
     5    35    37   ar
     6    37    38   ar
     7    38    39   ar
     8    39    31    1
     9    31    25    1
    10    25    26    1
    11    26    27    1
    12    27    28    1
    13    28    24    1
    14    24    21    1
    15    21    22    1
    16    21     1    1
    17     1     2    1
    18     2     3   am
    19     3     4    2
    20     3     6    1
    21     6     7    1
    22     7     8    2
    23     8     9    1
    24     9    10    2
    25     9    11    1
    26    11    12    2
    27    12    13    1
    28    13    14    2
    29    14    17    1
    30    17    18    1
    31    17    19    2
    32    17    20    2
    33    14    15    1
    34    15    16    1
    35    28    29    1
    36    29    30    1
    37    39    33   ar
    38    30    25    1
    39    16     6    2
    40    16    11    1
    41    22    23    1
    42     2     5    1
@<TRIPOS>MOLECULE
*****
 39 42 0 0 0
SMALL
GASTEIGER

@<TRIPOS>ATOM
      1 C         142.3258  141.9716  157.3339 C.3     1  UNL1        0.1204
      2 N         141.5291  141.3372  158.4351 N.am    1  UNL1       -0.2985
      3 C         141.8749  139.9578  158.9123 C.2     1  UNL1        0.2469
      4 O         143.0174  139.2128  158.2881 O.2     1  UNL1       -0.2701
      5 H         140.7792  141.8262  158.8448 H       1  UNL1        0.1498
      6 C         141.0782  139.3234  160.0135 C.2     1  UNL1        0.0665
      7 C         139.8023  138.6014  159.6961 C.2     1  UNL1        0.0931
      8 N         139.0056  137.9670  160.7974 N.am    1  UNL1       -0.1740
      9 C         139.4847  138.0546  162.2161 C.2     1  UNL1        0.2687
     10 O         138.6880  137.4202  163.3173 O.2     1  UNL1       -0.2680
     11 C         140.7607  138.7767  162.5335 C.2     1  UNL1        0.0520
     12 C         141.2398  138.8643  163.9522 C.2     1  UNL1        0.0053
     13 C         142.5157  139.5863  164.2696 C.2     1  UNL1        0.0144
     14 C         143.3124  140.2207  163.1683 C.2     1  UNL1        0.0878
     15 C         142.8333  140.1331  161.7497 C.3     1  UNL1        0.0716
     16 C         141.5574  139.4111  161.4323 C.2     1  UNL1       -0.0063
     17 S         144.5884  140.9427  163.4858 S.O2    1  UNL1        0.0070
     18 C         145.8643  141.6647  163.8033 C.3     1  UNL1        0.1812
     19 O         144.1461  141.0977  164.9107 O.2     1  UNL1       -0.1689
     20 O         145.0307  140.7877  162.0609 O.2     1  UNL1       -0.1689
     21 C         143.2013  143.1539  157.6268 C.3     1  UNL1        0.1459
     22 O         144.6876  143.0473  157.4553 O.3     1  UNL1       -0.3813
     23 H         144.9149  142.1545  157.1518 H       1  UNL1        0.2105
     24 C         142.5905  144.4427  158.0912 C.3     1  UNL1        0.1034
     25 C         140.8541  144.7466  162.2316 C.3     1  UNL1        0.1687
     26 C         140.2609  145.5453  161.1091 C.3     1  UNL1        0.0609
     27 C         140.8397  145.4440  159.7289 C.3     1  UNL1        0.0759
     28 N         142.0117  144.5440  159.4713 N.3     1  UNL1       -0.2704
     29 C         142.6049  143.7452  160.5939 C.3     1  UNL1        0.0759
     30 C         142.0261  143.8465  161.9739 C.3     1  UNL1        0.0609
     31 O         140.2753  144.8478  163.6117 O.3     1  UNL1       -0.4794
     32 C         137.7966  143.2652  163.0189 C.3     1  UNL1        0.0342
     33 C         138.7365  142.8113  164.0963 C.ar    1  UNL1        0.0129
     34 C         138.4371  141.5661  164.8772 C.ar    1  UNL1        0.0101
     35 C         139.3770  141.1123  165.9545 C.ar    1  UNL1        0.0576
     36 CL        139.0775  139.8671  166.7354 Cl      1  UNL1       -0.0823
     37 C         140.6163  141.9036  166.2509 C.ar    1  UNL1        0.0145
     38 C         140.9157  143.1488  165.4699 C.ar    1  UNL1        0.0374
     39 C         139.9759  143.6026  164.3926 C.ar    1  UNL1        0.1344
@<TRIPOS>BOND
     1    32    33    1
     2    33    34   ar
     3    34    35   ar
     4    35    36    1
     5    35    37   ar
     6    37    38   ar
     7    38    39   ar
     8    39    31    1
     9    31    25    1
    10    25    26    1
    11    26    27    1
    12    27    28    1
    13    28    24    1
    14    24    21    1
    15    21    22    1
    16    21     1    1
    17     1     2    1
    18     2     3   am
    19     3     4    2
    20     3     6    1
    21     6     7    1
    22     7     8    2
    23     8     9    1
    24     9    10    2
    25     9    11    1
    26    11    12    2
    27    12    13    1
    28    13    14    2
    29    14    17    1
    30    17    18    1
    31    17    19    2
    32    17    20    2
    33    14    15    1
    34    15    16    1
    35    28    29    1
    36    29    30    1
    37    39    33   ar
    38    30    25    1
    39    16     6    2
    40    16    11    1
    41    22    23    1
    42     2     5    1
@<TRIPOS>MOLECULE
*****
 39 42 0 0 0
SMALL
GASTEIGER

@<TRIPOS>ATOM
      1 C         143.2425  140.2877  157.5249 C.3     1  UNL1        0.1204
      2 N         142.4102  141.2431  158.3279 N.am    1  UNL1       -0.2985
      3 C         142.7114  142.7121  158.2933 C.2     1  UNL1        0.2469
      4 O         143.8448  143.2259  157.4557 O.2     1  UNL1       -0.2701
      5 H         141.6664  140.9059  158.8776 H       1  UNL1        0.1498
      6 C         141.8791  143.6674  159.0962 C.2     1  UNL1        0.0665
      7 C         140.7747  144.4381  158.4357 C.2     1  UNL1        0.0931
      8 N         139.9425  145.3934  159.2387 N.am    1  UNL1       -0.1740
      9 C         140.2146  145.5781  160.7021 C.2     1  UNL1        0.2687
     10 O         139.3824  146.5334  161.5051 O.2     1  UNL1       -0.2680
     11 C         141.3191  144.8074  161.3627 C.2     1  UNL1        0.0520
     12 C         141.5912  144.9921  162.8262 C.2     1  UNL1        0.0053
     13 C         142.6957  144.2214  163.4867 C.2     1  UNL1        0.0144
     14 C         143.5279  143.2661  162.6838 C.2     1  UNL1        0.0878
     15 C         143.2557  143.0814  161.2203 C.3     1  UNL1        0.0716
     16 C         142.1513  143.8521  160.5598 C.2     1  UNL1       -0.0063
     17 S         144.6324  142.4954  163.3443 S.O2    1  UNL1        0.0070
     18 C         145.7367  141.7248  164.0049 C.3     1  UNL1        0.1812
     19 O         144.1479  142.9531  164.6881 O.2     1  UNL1       -0.1689
     20 O         145.1168  142.0377  162.0006 O.2     1  UNL1       -0.1689
     21 C         142.6958  138.9388  157.1622 C.3     1  UNL1        0.1459
     22 O         142.6574  138.5065  155.7264 O.3     1  UNL1       -0.3813
     23 H         143.0204  139.2108  155.1668 H       1  UNL1        0.2105
     24 C         142.1876  138.0222  158.2353 C.3     1  UNL1        0.1034
     25 C         138.9033  139.3881  160.9916 C.3     1  UNL1        0.1687
     26 C         138.7154  139.4646  159.5054 C.3     1  UNL1        0.0609
     27 C         139.8102  139.0092  158.5866 C.3     1  UNL1        0.0759
     28 N         141.0928  138.4775  159.1541 N.3     1  UNL1       -0.2704
     29 C         141.2807  138.4010  160.6403 C.3     1  UNL1        0.0759
     30 C         140.1860  138.8563  161.5591 C.3     1  UNL1        0.0609
     31 O         137.8085  139.8434  161.9104 O.3     1  UNL1       -0.4794
     32 C         138.4384  139.6512  164.8372 C.3     1  UNL1        0.0342
     33 C         138.2975  140.9956  164.1870 C.ar    1  UNL1        0.0129
     34 C         138.4716  142.2439  165.0003 C.ar    1  UNL1        0.0101
     35 C         138.3307  143.5883  164.3502 C.ar    1  UNL1        0.0576
     36 CL        138.5048  144.8367  165.1635 Cl      1  UNL1       -0.0823
     37 C         138.0158  143.6844  162.8868 C.ar    1  UNL1        0.0145
     38 C         137.8417  142.4361  162.0736 C.ar    1  UNL1        0.0374
     39 C         137.9826  141.0917  162.7237 C.ar    1  UNL1        0.1344
@<TRIPOS>BOND
     1    32    33    1
     2    33    34   ar
     3    34    35   ar
     4    35    36    1
     5    35    37   ar
     6    37    38   ar
     7    38    39   ar
     8    39    31    1
     9    31    25    1
    10    25    26    1
    11    26    27    1
    12    27    28    1
    13    28    24    1
    14    24    21    1
    15    21    22    1
    16    21     1    1
    17     1     2    1
    18     2     3   am
    19     3     4    2
    20     3     6    1
    21     6     7    1
    22     7     8    2
    23     8     9    1
    24     9    10    2
    25     9    11    1
    26    11    12    2
    27    12    13    1
    28    13    14    2
    29    14    17    1
    30    17    18    1
    31    17    19    2
    32    17    20    2
    33    14    15    1
    34    15    16    1
    35    28    29    1
    36    29    30    1
    37    39    33   ar
    38    30    25    1
    39    16     6    2
    40    16    11    1
    41    22    23    1
    42     2     5    1
@<TRIPOS>MOLECULE
*****
 39 42 0 0 0
SMALL
GASTEIGER

@<TRIPOS>ATOM
      1 C         141.3053  138.7843  158.5142 C.3     1  UNL1        0.1204
      2 N         141.5769  139.4379  159.8368 N.am    1  UNL1       -0.2985
      3 C         142.9695  139.8711  160.1873 C.2     1  UNL1        0.2469
      4 O         144.0906  139.6507  159.2153 O.2     1  UNL1       -0.2701
      5 H         140.8411  139.5826  160.4747 H       1  UNL1        0.1498
      6 C         143.2411  140.5247  161.5098 C.2     1  UNL1        0.0665
      7 C         143.9242  139.7546  162.6008 C.2     1  UNL1        0.0931
      8 N         144.1958  140.4082  163.9233 N.am    1  UNL1       -0.1740
      9 C         143.7844  141.8319  164.1548 C.2     1  UNL1        0.2687
     10 O         144.0560  142.4855  165.4773 O.2     1  UNL1       -0.2680
     11 C         143.1012  142.6021  163.0638 C.2     1  UNL1        0.0520
     12 C         142.6898  144.0259  163.2954 C.2     1  UNL1        0.0053
     13 C         142.0067  144.7960  162.2044 C.2     1  UNL1        0.0144
     14 C         141.7351  144.1424  160.8819 C.2     1  UNL1        0.0878
     15 C         142.1465  142.7187  160.6504 C.3     1  UNL1        0.0716
     16 C         142.8296  141.9485  161.7413 C.2     1  UNL1       -0.0063
     17 S         141.0519  144.9126  159.7909 S.O2    1  UNL1        0.0070
     18 C         140.3688  145.6827  158.7000 C.3     1  UNL1        0.1812
     19 O         139.8205  145.0232  160.6401 O.2     1  UNL1       -0.1689
     20 O         142.2834  144.8019  158.9417 O.2     1  UNL1       -0.1689
     21 C         139.9074  138.7419  157.9717 C.3     1  UNL1        0.1459
     22 O         139.4377  137.5430  157.2023 O.3     1  UNL1       -0.3813
     23 H         140.1551  136.8925  157.1476 H       1  UNL1        0.2105
     24 C         138.9794  139.8983  158.1985 C.3     1  UNL1        0.1034
     25 C         137.8261  141.0696  162.3875 C.3     1  UNL1        0.1687
     26 C         138.2436  142.1212  161.4028 C.3     1  UNL1        0.0609
     27 C         138.6281  141.7307  160.0064 C.3     1  UNL1        0.0759
     28 N         138.5950  140.2887  159.5948 N.3     1  UNL1       -0.2704
     29 C         138.1775  139.2371  160.5796 C.3     1  UNL1        0.0759
     30 C         137.7931  139.6275  161.9759 C.3     1  UNL1        0.0609
     31 O         137.4417  141.4600  163.7839 O.3     1  UNL1       -0.4794
     32 C         138.1627  139.2588  165.6904 C.3     1  UNL1        0.0342
     33 C         138.8641  140.5822  165.7729 C.ar    1  UNL1        0.0129
     34 C         139.9259  140.8050  166.8087 C.ar    1  UNL1        0.0101
     35 C         140.6273  142.1283  166.8911 C.ar    1  UNL1        0.0576
     36 CL        141.6892  142.3511  167.9269 Cl      1  UNL1       -0.0823
     37 C         140.2668  143.2289  165.9379 C.ar    1  UNL1        0.0145
     38 C         139.2049  143.0061  164.9021 C.ar    1  UNL1        0.0374
     39 C         138.5036  141.6828  164.8196 C.ar    1  UNL1        0.1344
@<TRIPOS>BOND
     1    32    33    1
     2    33    34   ar
     3    34    35   ar
     4    35    36    1
     5    35    37   ar
     6    37    38   ar
     7    38    39   ar
     8    39    31    1
     9    31    25    1
    10    25    26    1
    11    26    27    1
    12    27    28    1
    13    28    24    1
    14    24    21    1
    15    21    22    1
    16    21     1    1
    17     1     2    1
    18     2     3   am
    19     3     4    2
    20     3     6    1
    21     6     7    1
    22     7     8    2
    23     8     9    1
    24     9    10    2
    25     9    11    1
    26    11    12    2
    27    12    13    1
    28    13    14    2
    29    14    17    1
    30    17    18    1
    31    17    19    2
    32    17    20    2
    33    14    15    1
    34    15    16    1
    35    28    29    1
    36    29    30    1
    37    39    33   ar
    38    30    25    1
    39    16     6    2
    40    16    11    1
    41    22    23    1
    42     2     5    1
