@<TRIPOS>MOLECULE
*****
 36 40 0 0 0
SMALL
GASTEIGER

@<TRIPOS>ATOM
      1 C         137.7913  141.2769  161.5560 C.3     1  UNL1        0.2588
      2 O         138.0199  142.2819  159.1711 O.2     1  UNL1       -0.2708
      3 C         138.5826  142.0486  160.5418 C.2     1  UNL1        0.2689
      4 N         139.9365  142.5869  160.8984 N.am    1  UNL1       -0.2664
      5 H         140.3057  142.4337  161.7981 H       1  UNL1        0.1564
      6 C         140.7277  143.3585  159.8843 C.ar    1  UNL1        0.1342
      7 C         140.4363  144.8116  159.6533 C.ar    1  UNL1        0.0345
      8 C         141.2275  145.5833  158.6392 C.ar    1  UNL1        0.0045
      9 C         142.3103  144.9017  157.8561 C.ar    1  UNL1        0.0208
     10 C         142.6018  143.4486  158.0871 C.ar    1  UNL1        0.1003
     11 N         141.8104  142.6770  159.1013 N.ar    1  UNL1       -0.2290
     12 C         137.6412  139.7909  161.4175 C.3     1  UNL1        0.1261
     13 N         138.7286  138.8788  161.9029 N.3     1  UNL1       -0.2650
     14 C         140.2152  138.8070  161.7155 C.3     1  UNL1        0.1033
     15 C         140.2664  137.5888  162.5892 C.3     1  UNL1        0.1423
     16 O         141.3538  136.6767  163.0746 O.3     1  UNL1       -0.3816
     17 C         138.7800  137.6606  162.7766 C.3     1  UNL1        0.1033
     18 H         142.2070  136.9743  162.7217 H       1  UNL1        0.2105
     19 O         137.1502  141.9913  162.7087 O.3     1  UNL1       -0.4529
     20 C         138.0036  142.6707  163.7383 C.ar    1  UNL1        0.2312
     21 N         138.1885  144.1586  163.6960 N.ar    1  UNL1       -0.1892
     22 C         139.0419  144.8379  164.7257 C.ar    1  UNL1        0.2029
     23 N         139.7105  144.0292  165.7976 N.ar    1  UNL1       -0.2046
     24 C         139.5257  142.5413  165.8399 C.ar    1  UNL1        0.1716
     25 C         138.6722  141.8620  164.8103 C.ar    1  UNL1        0.1098
     26 C         138.6741  140.3910  165.1038 C.ar    1  UNL1        0.1283
     27 N         139.5287  140.1611  166.3149 N.ar    1  UNL1       -0.1619
     28 N         140.0550  141.4901  166.7698 N.ar    1  UNL1       -0.2089
     29 C         140.9530  141.7264  167.9479 C.ar    1  UNL1        0.1222
     30 C         140.4190  141.5717  169.3410 C.ar    1  UNL1        0.1585
     31 F         138.9869  141.1806  169.5562 F       1  UNL1       -0.2026
     32 C         141.3169  141.8080  170.5190 C.ar    1  UNL1        0.0313
     33 C         142.7490  142.1991  170.3040 C.ar    1  UNL1        0.0033
     34 C         143.2830  142.3538  168.9108 C.ar    1  UNL1        0.0131
     35 C         142.3850  142.1175  167.7328 C.ar    1  UNL1        0.0776
     36 CL        142.9191  142.2722  166.3397 Cl      1  UNL1       -0.0806
@<TRIPOS>BOND
     1     2     3    2
     2     3     4   am
     3     4     6    1
     4     6     7   ar
     5     7     8   ar
     6     8     9   ar
     7     9    10   ar
     8    10    11   ar
     9     3     1    1
    10     1    12    1
    11    12    13    1
    12    13    14    1
    13    14    15    1
    14    15    16    1
    15    15    17    1
    16     1    19    1
    17    19    20    1
    18    20    21   ar
    19    21    22   ar
    20    22    23   ar
    21    23    24   ar
    22    24    25   ar
    23    25    26   ar
    24    26    27   ar
    25    27    28   ar
    26    28    29    1
    27    29    30   ar
    28    30    31    1
    29    30    32   ar
    30    32    33   ar
    31    33    34   ar
    32    34    35   ar
    33    35    36    1
    34    11     6   ar
    35    17    13    1
    36    25    20   ar
    37    35    29   ar
    38    28    24   ar
    39     4     5    1
    40    16    18    1
@<TRIPOS>MOLECULE
*****
 36 40 0 0 0
SMALL
GASTEIGER

@<TRIPOS>ATOM
      1 C         141.2711  144.9543  159.9910 C.3     1  UNL1        0.2588
      2 O         142.5644  146.2321  158.1350 O.2     1  UNL1       -0.2708
      3 C         141.3009  145.5981  158.6365 C.2     1  UNL1        0.2689
      4 N         140.0671  145.6079  157.7835 N.am    1  UNL1       -0.2664
      5 H         139.2378  145.1918  158.1127 H       1  UNL1        0.1564
      6 C         140.0968  146.2517  156.4290 C.ar    1  UNL1        0.1342
      7 C         140.9069  145.6392  155.3251 C.ar    1  UNL1        0.0345
      8 C         140.9366  146.2829  153.9706 C.ar    1  UNL1        0.0045
      9 C         140.1562  147.5392  153.7200 C.ar    1  UNL1        0.0208
     10 C         139.3461  148.1517  154.8239 C.ar    1  UNL1        0.1003
     11 N         139.3164  147.5079  156.1785 N.ar    1  UNL1       -0.2290
     12 C         140.1172  145.2058  160.9158 C.3     1  UNL1        0.1261
     13 N         139.2106  144.0770  161.3081 N.3     1  UNL1       -0.2650
     14 C         138.6428  142.8794  160.6056 C.3     1  UNL1        0.1033
     15 C         137.9286  142.4806  161.8629 C.3     1  UNL1        0.1423
     16 O         137.0220  141.3518  162.2552 O.3     1  UNL1       -0.3816
     17 C         138.4963  143.6781  162.5653 C.3     1  UNL1        0.1033
     18 H         136.8898  140.7641  161.4949 H       1  UNL1        0.2105
     19 O         142.3953  144.0590  160.4208 O.3     1  UNL1       -0.4529
     20 C         142.7233  143.9134  161.8773 C.ar    1  UNL1        0.2312
     21 N         143.4934  144.9894  162.5838 N.ar    1  UNL1       -0.1892
     22 C         143.8214  144.8437  164.0402 C.ar    1  UNL1        0.2029
     23 N         143.3792  143.6221  164.7901 N.ar    1  UNL1       -0.2046
     24 C         142.6091  142.5462  164.0835 C.ar    1  UNL1        0.1716
     25 C         142.2812  142.6919  162.6271 C.ar    1  UNL1        0.1098
     26 C         141.5142  141.4753  162.2007 C.ar    1  UNL1        0.1283
     27 N         141.3681  140.5778  163.3937 N.ar    1  UNL1       -0.1619
     28 N         142.0449  141.2397  164.5573 N.ar    1  UNL1       -0.2089
     29 C         142.1405  140.6913  165.9502 C.ar    1  UNL1        0.1222
     30 C         141.4249  141.3760  167.0766 C.ar    1  UNL1        0.1585
     31 F         140.6135  142.6092  166.8103 F       1  UNL1       -0.2026
     32 C         141.5205  140.8276  168.4695 C.ar    1  UNL1        0.0313
     33 C         142.3319  139.5944  168.7360 C.ar    1  UNL1        0.0033
     34 C         143.0475  138.9097  167.6095 C.ar    1  UNL1        0.0131
     35 C         142.9519  139.4581  166.2166 C.ar    1  UNL1        0.0776
     36 CL        143.6676  138.7733  165.0902 Cl      1  UNL1       -0.0806
@<TRIPOS>BOND
     1     2     3    2
     2     3     4   am
     3     4     6    1
     4     6     7   ar
     5     7     8   ar
     6     8     9   ar
     7     9    10   ar
     8    10    11   ar
     9     3     1    1
    10     1    12    1
    11    12    13    1
    12    13    14    1
    13    14    15    1
    14    15    16    1
    15    15    17    1
    16     1    19    1
    17    19    20    1
    18    20    21   ar
    19    21    22   ar
    20    22    23   ar
    21    23    24   ar
    22    24    25   ar
    23    25    26   ar
    24    26    27   ar
    25    27    28   ar
    26    28    29    1
    27    29    30   ar
    28    30    31    1
    29    30    32   ar
    30    32    33   ar
    31    33    34   ar
    32    34    35   ar
    33    35    36    1
    34    11     6   ar
    35    17    13    1
    36    25    20   ar
    37    35    29   ar
    38    28    24   ar
    39     4     5    1
    40    16    18    1
@<TRIPOS>MOLECULE
*****
 36 40 0 0 0
SMALL
GASTEIGER

@<TRIPOS>ATOM
      1 C         142.0782  139.0446  166.1068 C.3     1  UNL1        0.2588
      2 O         139.7262  139.8889  166.8178 O.2     1  UNL1       -0.2708
      3 C         140.9663  140.0446  165.9885 C.2     1  UNL1        0.2689
      4 N         141.0947  141.2002  165.0409 N.am    1  UNL1       -0.2664
      5 H         141.9087  141.3024  164.4966 H       1  UNL1        0.1564
      6 C         139.9830  142.2001  164.9225 C.ar    1  UNL1        0.1342
      7 C         140.1271  143.5587  165.5418 C.ar    1  UNL1        0.0345
      8 C         139.0153  144.5587  165.4235 C.ar    1  UNL1        0.0045
      9 C         137.7594  144.2001  164.6858 C.ar    1  UNL1        0.0208
     10 C         137.6152  142.8415  164.0665 C.ar    1  UNL1        0.1003
     11 N         138.7271  141.8415  164.1849 N.ar    1  UNL1       -0.2290
     12 C         143.1915  139.2732  167.0857 C.3     1  UNL1        0.1261
     13 N         142.8794  139.6855  168.4937 N.3     1  UNL1       -0.2650
     14 C         142.9433  140.9730  169.2608 C.3     1  UNL1        0.1033
     15 C         142.4380  140.2686  170.4850 C.3     1  UNL1        0.1423
     16 O         142.1259  140.6809  171.8930 O.3     1  UNL1       -0.3816
     17 C         142.3741  138.9813  169.7179 C.3     1  UNL1        0.1033
     18 H         142.3040  141.6285  171.9995 H       1  UNL1        0.2105
     19 O         142.0766  137.8160  165.2463 O.3     1  UNL1       -0.4529
     20 C         141.4099  137.8422  163.9028 C.ar    1  UNL1        0.2312
     21 N         139.9321  137.6090  163.7942 N.ar    1  UNL1       -0.1892
     22 C         139.2655  137.6352  162.4507 C.ar    1  UNL1        0.2029
     23 N         140.0766  137.8946  161.2159 N.ar    1  UNL1       -0.2046
     24 C         141.5544  138.1278  161.3245 C.ar    1  UNL1        0.1716
     25 C         142.2210  138.1016  162.6680 C.ar    1  UNL1        0.1098
     26 C         143.6839  138.3640  162.4648 C.ar    1  UNL1        0.1283
     27 N         143.9213  138.5523  160.9957 N.ar    1  UNL1       -0.1619
     28 N         142.6052  138.4064  160.2910 N.ar    1  UNL1       -0.2089
     29 C         142.3795  138.5192  158.8124 C.ar    1  UNL1        0.1222
     30 C         142.6522  137.3446  157.9203 C.ar    1  UNL1        0.1585
     31 F         143.1505  136.0570  158.5068 F       1  UNL1       -0.2026
     32 C         142.4265  137.4574  156.4417 C.ar    1  UNL1        0.0313
     33 C         141.9282  138.7449  155.8551 C.ar    1  UNL1        0.0033
     34 C         141.6555  139.9195  156.7472 C.ar    1  UNL1        0.0131
     35 C         141.8812  139.8067  158.2258 C.ar    1  UNL1        0.0776
     36 CL        141.6085  140.9813  159.1179 Cl      1  UNL1       -0.0806
@<TRIPOS>BOND
     1     2     3    2
     2     3     4   am
     3     4     6    1
     4     6     7   ar
     5     7     8   ar
     6     8     9   ar
     7     9    10   ar
     8    10    11   ar
     9     3     1    1
    10     1    12    1
    11    12    13    1
    12    13    14    1
    13    14    15    1
    14    15    16    1
    15    15    17    1
    16     1    19    1
    17    19    20    1
    18    20    21   ar
    19    21    22   ar
    20    22    23   ar
    21    23    24   ar
    22    24    25   ar
    23    25    26   ar
    24    26    27   ar
    25    27    28   ar
    26    28    29    1
    27    29    30   ar
    28    30    31    1
    29    30    32   ar
    30    32    33   ar
    31    33    34   ar
    32    34    35   ar
    33    35    36    1
    34    11     6   ar
    35    17    13    1
    36    25    20   ar
    37    35    29   ar
    38    28    24   ar
    39     4     5    1
    40    16    18    1
@<TRIPOS>MOLECULE
*****
 36 40 0 0 0
SMALL
GASTEIGER

@<TRIPOS>ATOM
      1 C         142.2128  139.5676  167.1781 C.3     1  UNL1        0.2588
      2 O         139.6674  139.9952  166.8817 O.2     1  UNL1       -0.2708
      3 C         141.0902  140.3816  166.6060 C.2     1  UNL1        0.2689
      4 N         141.3906  141.5820  165.7582 N.am    1  UNL1       -0.2664
      5 H         142.3245  141.8357  165.5773 H       1  UNL1        0.1564
      6 C         140.2681  142.3960  165.1861 C.ar    1  UNL1        0.1342
      7 C         139.8734  143.6897  165.8347 C.ar    1  UNL1        0.0345
      8 C         138.7509  144.5036  165.2626 C.ar    1  UNL1        0.0045
      9 C         138.0231  144.0240  164.0418 C.ar    1  UNL1        0.0208
     10 C         138.4178  142.7304  163.3932 C.ar    1  UNL1        0.1003
     11 N         139.5404  141.9164  163.9653 N.ar    1  UNL1       -0.2290
     12 C         142.4883  139.6014  168.6522 C.3     1  UNL1        0.1261
     13 N         142.6612  140.9164  169.3529 N.3     1  UNL1       -0.2650
     14 C         143.2981  142.2288  169.0036 C.3     1  UNL1        0.1033
     15 C         142.9057  142.7760  170.3439 C.3     1  UNL1        0.1423
     16 O         143.0786  144.0909  171.0446 O.3     1  UNL1       -0.3816
     17 C         142.2688  141.4637  170.6933 C.3     1  UNL1        0.1033
     18 H         143.5596  144.7042  170.4672 H       1  UNL1        0.2105
     19 O         143.0600  138.7198  166.2761 O.3     1  UNL1       -0.4529
     20 C         143.3536  139.1747  164.8772 C.ar    1  UNL1        0.2312
     21 N         144.4269  140.1927  164.6293 N.ar    1  UNL1       -0.1892
     22 C         144.7205  140.6475  163.2304 C.ar    1  UNL1        0.2029
     23 N         143.9407  140.0843  162.0794 N.ar    1  UNL1       -0.2046
     24 C         142.8674  139.0663  162.3273 C.ar    1  UNL1        0.1716
     25 C         142.5738  138.6115  163.7262 C.ar    1  UNL1        0.1098
     26 C         141.4655  137.6026  163.6627 C.ar    1  UNL1        0.1283
     27 N         141.0742  137.4339  162.2245 N.ar    1  UNL1       -0.1619
     28 N         141.9406  138.3385  161.3992 N.ar    1  UNL1       -0.2089
     29 C         141.8892  138.4890  159.9077 C.ar    1  UNL1        0.1222
     30 C         142.6090  137.5087  159.0297 C.ar    1  UNL1        0.1585
     31 F         143.3803  136.3779  159.6433 F       1  UNL1       -0.2026
     32 C         142.5576  137.6592  157.5382 C.ar    1  UNL1        0.0313
     33 C         141.7864  138.7900  156.9245 C.ar    1  UNL1        0.0033
     34 C         141.0666  139.7702  157.8025 C.ar    1  UNL1        0.0131
     35 C         141.1180  139.6198  159.2940 C.ar    1  UNL1        0.0776
     36 CL        140.3981  140.6001  160.1719 Cl      1  UNL1       -0.0806
@<TRIPOS>BOND
     1     2     3    2
     2     3     4   am
     3     4     6    1
     4     6     7   ar
     5     7     8   ar
     6     8     9   ar
     7     9    10   ar
     8    10    11   ar
     9     3     1    1
    10     1    12    1
    11    12    13    1
    12    13    14    1
    13    14    15    1
    14    15    16    1
    15    15    17    1
    16     1    19    1
    17    19    20    1
    18    20    21   ar
    19    21    22   ar
    20    22    23   ar
    21    23    24   ar
    22    24    25   ar
    23    25    26   ar
    24    26    27   ar
    25    27    28   ar
    26    28    29    1
    27    29    30   ar
    28    30    31    1
    29    30    32   ar
    30    32    33   ar
    31    33    34   ar
    32    34    35   ar
    33    35    36    1
    34    11     6   ar
    35    17    13    1
    36    25    20   ar
    37    35    29   ar
    38    28    24   ar
    39     4     5    1
    40    16    18    1
@<TRIPOS>MOLECULE
*****
 36 40 0 0 0
SMALL
GASTEIGER

@<TRIPOS>ATOM
      1 C         139.0821  138.4729  162.4839 C.3     1  UNL1        0.2588
      2 O         138.9499  137.4883  164.8845 O.2     1  UNL1       -0.2708
      3 C         139.4001  138.5688  163.9467 C.2     1  UNL1        0.2689
      4 N         140.1684  139.7454  164.4716 N.am    1  UNL1       -0.2664
      5 H         140.4639  140.4546  163.8560 H       1  UNL1        0.1564
      6 C         140.4865  139.8414  165.9343 C.ar    1  UNL1        0.1342
      7 C         141.8941  139.6377  166.4107 C.ar    1  UNL1        0.0345
      8 C         142.2122  139.7336  167.8734 C.ar    1  UNL1        0.0045
      9 C         141.1225  140.0333  168.8598 C.ar    1  UNL1        0.0208
     10 C         139.7149  140.2370  168.3834 C.ar    1  UNL1        0.1003
     11 N         139.3968  140.1410  166.9206 N.ar    1  UNL1       -0.2290
     12 C         137.9254  139.2406  161.9159 C.3     1  UNL1        0.1261
     13 N         137.8401  140.7249  162.1150 N.3     1  UNL1       -0.2650
     14 C         137.3196  141.6216  163.1990 C.3     1  UNL1        0.1033
     15 C         137.7196  142.8240  162.3964 C.3     1  UNL1        0.1423
     16 O         137.6344  144.3083  162.5954 O.3     1  UNL1       -0.3816
     17 C         138.2401  141.9274  161.3125 C.3     1  UNL1        0.1033
     18 H         137.2192  144.4964  163.4516 H       1  UNL1        0.2105
     19 O         139.9208  137.6093  161.5891 O.3     1  UNL1       -0.4529
     20 C         141.3072  138.0419  161.2138 C.ar    1  UNL1        0.2312
     21 N         142.4579  137.7502  162.1306 N.ar    1  UNL1       -0.1892
     22 C         143.8442  138.1829  161.7553 C.ar    1  UNL1        0.2029
     23 N         144.0798  138.9072  160.4631 N.ar    1  UNL1       -0.2046
     24 C         142.9291  139.1990  159.5462 C.ar    1  UNL1        0.1716
     25 C         141.5428  138.7663  159.9216 C.ar    1  UNL1        0.1098
     26 C         140.6118  139.1905  158.8245 C.ar    1  UNL1        0.1283
     27 N         141.4228  139.8854  157.7712 N.ar    1  UNL1       -0.1619
     28 N         142.8549  139.8906  158.2173 N.ar    1  UNL1       -0.2089
     29 C         144.0101  140.4833  157.4662 C.ar    1  UNL1        0.1222
     30 C         144.6553  141.7455  157.9567 C.ar    1  UNL1        0.1585
     31 F         144.1452  142.4151  159.1983 F       1  UNL1       -0.2026
     32 C         145.8105  142.3383  157.2056 C.ar    1  UNL1        0.0313
     33 C         146.3206  141.6688  155.9640 C.ar    1  UNL1        0.0033
     34 C         145.6755  140.4066  155.4735 C.ar    1  UNL1        0.0131
     35 C         144.5203  139.8139  156.2246 C.ar    1  UNL1        0.0776
     36 CL        143.8752  138.5516  155.7340 Cl      1  UNL1       -0.0806
@<TRIPOS>BOND
     1     2     3    2
     2     3     4   am
     3     4     6    1
     4     6     7   ar
     5     7     8   ar
     6     8     9   ar
     7     9    10   ar
     8    10    11   ar
     9     3     1    1
    10     1    12    1
    11    12    13    1
    12    13    14    1
    13    14    15    1
    14    15    16    1
    15    15    17    1
    16     1    19    1
    17    19    20    1
    18    20    21   ar
    19    21    22   ar
    20    22    23   ar
    21    23    24   ar
    22    24    25   ar
    23    25    26   ar
    24    26    27   ar
    25    27    28   ar
    26    28    29    1
    27    29    30   ar
    28    30    31    1
    29    30    32   ar
    30    32    33   ar
    31    33    34   ar
    32    34    35   ar
    33    35    36    1
    34    11     6   ar
    35    17    13    1
    36    25    20   ar
    37    35    29   ar
    38    28    24   ar
    39     4     5    1
    40    16    18    1
@<TRIPOS>MOLECULE
*****
 36 40 0 0 0
SMALL
GASTEIGER

@<TRIPOS>ATOM
      1 C         139.0304  140.2472  166.1366 C.3     1  UNL1        0.2588
      2 O         139.9304  142.5531  166.9258 O.2     1  UNL1       -0.2708
      3 C         140.0060  141.3780  165.9967 C.2     1  UNL1        0.2689
      4 N         141.0572  141.3336  164.9276 N.am    1  UNL1       -0.2664
      5 H         141.1069  140.5623  164.3178 H       1  UNL1        0.1564
      6 C         142.0329  142.4643  164.7876 C.ar    1  UNL1        0.1342
      7 C         141.6481  143.6967  164.0240 C.ar    1  UNL1        0.0345
      8 C         142.6237  144.8274  163.8840 C.ar    1  UNL1        0.0045
      9 C         143.9842  144.7258  164.5077 C.ar    1  UNL1        0.0208
     10 C         144.3689  143.4934  165.2714 C.ar    1  UNL1        0.1003
     11 N         143.3932  142.3626  165.4113 N.ar    1  UNL1       -0.2290
     12 C         139.1112  139.3290  167.3200 C.3     1  UNL1        0.1261
     13 N         139.5819  139.8524  168.6446 N.3     1  UNL1       -0.2650
     14 C         140.9126  139.9673  169.3274 C.3     1  UNL1        0.1033
     15 C         140.2476  140.5925  170.5178 C.3     1  UNL1        0.1423
     16 O         140.7183  141.1158  171.8424 O.3     1  UNL1       -0.3816
     17 C         138.9171  140.4775  169.8350 C.3     1  UNL1        0.1033
     18 H         141.6801  141.0087  171.9091 H       1  UNL1        0.2105
     19 O         137.9740  140.0346  165.0931 O.3     1  UNL1       -0.4529
     20 C         138.3649  139.8517  163.6565 C.ar    1  UNL1        0.2312
     21 N         138.9035  138.5325  163.1879 N.ar    1  UNL1       -0.1892
     22 C         139.2944  138.3497  161.7514 C.ar    1  UNL1        0.2029
     23 N         139.1467  139.4860  160.7834 N.ar    1  UNL1       -0.2046
     24 C         138.6082  140.8052  161.2520 C.ar    1  UNL1        0.1716
     25 C         138.2173  140.9881  162.6886 C.ar    1  UNL1        0.1098
     26 C         137.7196  142.3930  162.8584 C.ar    1  UNL1        0.1283
     27 N         137.8030  143.0783  161.5267 N.ar    1  UNL1       -0.1619
     28 N         138.3521  142.0971  160.5340 N.ar    1  UNL1       -0.2089
     29 C         138.6015  142.3612  159.0786 C.ar    1  UNL1        0.1222
     30 C         137.9308  141.5154  158.0371 C.ar    1  UNL1        0.1585
     31 F         137.0107  140.4053  158.4510 F       1  UNL1       -0.2026
     32 C         138.1802  141.7796  156.5818 C.ar    1  UNL1        0.0313
     33 C         139.1002  142.8896  156.1679 C.ar    1  UNL1        0.0033
     34 C         139.7709  143.7354  157.2094 C.ar    1  UNL1        0.0131
     35 C         139.5216  143.4713  158.6647 C.ar    1  UNL1        0.0776
     36 CL        140.1923  144.3171  159.7062 Cl      1  UNL1       -0.0806
@<TRIPOS>BOND
     1     2     3    2
     2     3     4   am
     3     4     6    1
     4     6     7   ar
     5     7     8   ar
     6     8     9   ar
     7     9    10   ar
     8    10    11   ar
     9     3     1    1
    10     1    12    1
    11    12    13    1
    12    13    14    1
    13    14    15    1
    14    15    16    1
    15    15    17    1
    16     1    19    1
    17    19    20    1
    18    20    21   ar
    19    21    22   ar
    20    22    23   ar
    21    23    24   ar
    22    24    25   ar
    23    25    26   ar
    24    26    27   ar
    25    27    28   ar
    26    28    29    1
    27    29    30   ar
    28    30    31    1
    29    30    32   ar
    30    32    33   ar
    31    33    34   ar
    32    34    35   ar
    33    35    36    1
    34    11     6   ar
    35    17    13    1
    36    25    20   ar
    37    35    29   ar
    38    28    24   ar
    39     4     5    1
    40    16    18    1
@<TRIPOS>MOLECULE
*****
 36 40 0 0 0
SMALL
GASTEIGER

@<TRIPOS>ATOM
      1 C         142.9366  141.9356  167.5207 C.3     1  UNL1        0.2588
      2 O         142.7545  139.3848  167.0620 O.2     1  UNL1       -0.2708
      3 C         142.1134  140.7382  167.1484 C.2     1  UNL1        0.2689
      4 N         140.6492  140.8941  166.8624 N.am    1  UNL1       -0.2664
      5 H         140.2285  141.7824  166.9191 H       1  UNL1        0.1564
      6 C         139.8261  139.6968  166.4901 C.ar    1  UNL1        0.1342
      7 C         140.2354  138.8359  165.3319 C.ar    1  UNL1        0.0345
      8 C         139.4122  137.6386  164.9596 C.ar    1  UNL1        0.0045
      9 C         138.1796  137.3020  165.7455 C.ar    1  UNL1        0.0208
     10 C         137.7703  138.1628  166.9036 C.ar    1  UNL1        0.1003
     11 N         138.5935  139.3603  167.2760 N.ar    1  UNL1       -0.2290
     12 C         142.9788  142.4031  168.9453 C.3     1  UNL1        0.1261
     13 N         141.7015  142.6640  169.6873 N.3     1  UNL1       -0.2650
     14 C         140.9134  141.9315  170.7325 C.3     1  UNL1        0.1033
     15 C         139.8952  143.0328  170.7365 C.3     1  UNL1        0.1423
     16 O         138.6178  143.2937  171.4784 O.3     1  UNL1       -0.3816
     17 C         140.6831  143.7653  169.6913 C.3     1  UNL1        0.1033
     18 H         138.4418  142.5593  172.0872 H       1  UNL1        0.2105
     19 O         143.7176  142.6655  166.4684 O.3     1  UNL1       -0.4529
     20 C         143.5071  142.3420  165.0188 C.ar    1  UNL1        0.2312
     21 N         144.5007  141.4875  164.2891 N.ar    1  UNL1       -0.1892
     22 C         144.2902  141.1641  162.8396 C.ar    1  UNL1        0.2029
     23 N         143.0861  141.6952  162.1198 N.ar    1  UNL1       -0.2046
     24 C         142.0925  142.5497  162.8495 C.ar    1  UNL1        0.1716
     25 C         142.3030  142.8731  164.2990 C.ar    1  UNL1        0.1098
     26 C         141.1613  143.7340  164.7525 C.ar    1  UNL1        0.1283
     27 N         140.2452  143.9425  163.5832 N.ar    1  UNL1       -0.1619
     28 N         140.8207  143.2106  162.4071 N.ar    1  UNL1       -0.2089
     29 C         140.2285  143.1502  161.0303 C.ar    1  UNL1        0.1222
     30 C         140.5542  144.2159  160.0263 C.ar    1  UNL1        0.1585
     31 F         141.4723  145.3421  160.3990 F       1  UNL1       -0.2026
     32 C         139.9619  144.1555  158.6495 C.ar    1  UNL1        0.0313
     33 C         139.0439  143.0294  158.2767 C.ar    1  UNL1        0.0033
     34 C         138.7182  141.9637  159.2807 C.ar    1  UNL1        0.0131
     35 C         139.3104  142.0241  160.6575 C.ar    1  UNL1        0.0776
     36 CL        138.9846  140.9583  161.6615 Cl      1  UNL1       -0.0806
@<TRIPOS>BOND
     1     2     3    2
     2     3     4   am
     3     4     6    1
     4     6     7   ar
     5     7     8   ar
     6     8     9   ar
     7     9    10   ar
     8    10    11   ar
     9     3     1    1
    10     1    12    1
    11    12    13    1
    12    13    14    1
    13    14    15    1
    14    15    16    1
    15    15    17    1
    16     1    19    1
    17    19    20    1
    18    20    21   ar
    19    21    22   ar
    20    22    23   ar
    21    23    24   ar
    22    24    25   ar
    23    25    26   ar
    24    26    27   ar
    25    27    28   ar
    26    28    29    1
    27    29    30   ar
    28    30    31    1
    29    30    32   ar
    30    32    33   ar
    31    33    34   ar
    32    34    35   ar
    33    35    36    1
    34    11     6   ar
    35    17    13    1
    36    25    20   ar
    37    35    29   ar
    38    28    24   ar
    39     4     5    1
    40    16    18    1
@<TRIPOS>MOLECULE
*****
 36 40 0 0 0
SMALL
GASTEIGER

@<TRIPOS>ATOM
      1 C         144.0138  139.3024  161.5233 C.3     1  UNL1        0.2588
      2 O         143.5797  138.8981  158.9938 O.2     1  UNL1       -0.2708
      3 C         143.8518  139.8373  160.1312 C.2     1  UNL1        0.2689
      4 N         143.9620  141.3115  159.8767 N.am    1  UNL1       -0.2664
      5 H         144.1406  141.9279  160.6233 H       1  UNL1        0.1564
      6 C         143.8000  141.8464  158.4848 C.ar    1  UNL1        0.1342
      7 C         144.9677  141.8530  157.5432 C.ar    1  UNL1        0.0345
      8 C         144.8058  142.3879  156.1513 C.ar    1  UNL1        0.0045
      9 C         143.4761  142.9164  155.7009 C.ar    1  UNL1        0.0208
     10 C         142.3085  142.9099  156.6424 C.ar    1  UNL1        0.1003
     11 N         142.4705  142.3749  158.0344 N.ar    1  UNL1       -0.2290
     12 C         143.4159  137.9769  161.8916 C.3     1  UNL1        0.1261
     13 N         141.9343  137.8512  162.0888 N.3     1  UNL1       -0.2650
     14 C         141.0507  137.3103  163.1737 C.3     1  UNL1        0.1033
     15 C         139.8389  137.6735  162.3677 C.3     1  UNL1        0.1423
     16 O         138.3573  137.5478  162.5649 O.3     1  UNL1       -0.3816
     17 C         140.7224  138.2144  161.2830 C.3     1  UNL1        0.1033
     18 H         138.1794  137.1310  163.4226 H       1  UNL1        0.2105
     19 O         144.7735  140.0929  162.5468 O.3     1  UNL1       -0.4529
     20 C         144.0420  141.0150  163.4768 C.ar    1  UNL1        0.2312
     21 N         143.7877  142.4378  163.0758 N.ar    1  UNL1       -0.1892
     22 C         143.0562  143.3598  164.0057 C.ar    1  UNL1        0.2029
     23 N         142.5789  142.8590  165.3366 N.ar    1  UNL1       -0.2046
     24 C         142.8332  141.4361  165.7376 C.ar    1  UNL1        0.1716
     25 C         143.5647  140.5141  164.8077 C.ar    1  UNL1        0.1098
     26 C         143.6684  139.1729  165.4713 C.ar    1  UNL1        0.1283
     27 N         143.0009  139.2660  166.8114 N.ar    1  UNL1       -0.1619
     28 N         142.4847  140.6647  166.9759 N.ar    1  UNL1       -0.2089
     29 C         141.7492  141.1984  168.1693 C.ar    1  UNL1        0.1222
     30 C         142.4302  142.1527  169.1050 C.ar    1  UNL1        0.1585
     31 F         143.8468  142.5733  168.8474 F       1  UNL1       -0.2026
     32 C         141.6947  142.6864  170.2984 C.ar    1  UNL1        0.0313
     33 C         140.2781  142.2658  170.5561 C.ar    1  UNL1        0.0033
     34 C         139.5971  141.3115  169.6204 C.ar    1  UNL1        0.0131
     35 C         140.3326  140.7778  168.4271 C.ar    1  UNL1        0.0776
     36 CL        139.6516  139.8235  167.4914 Cl      1  UNL1       -0.0806
@<TRIPOS>BOND
     1     2     3    2
     2     3     4   am
     3     4     6    1
     4     6     7   ar
     5     7     8   ar
     6     8     9   ar
     7     9    10   ar
     8    10    11   ar
     9     3     1    1
    10     1    12    1
    11    12    13    1
    12    13    14    1
    13    14    15    1
    14    15    16    1
    15    15    17    1
    16     1    19    1
    17    19    20    1
    18    20    21   ar
    19    21    22   ar
    20    22    23   ar
    21    23    24   ar
    22    24    25   ar
    23    25    26   ar
    24    26    27   ar
    25    27    28   ar
    26    28    29    1
    27    29    30   ar
    28    30    31    1
    29    30    32   ar
    30    32    33   ar
    31    33    34   ar
    32    34    35   ar
    33    35    36    1
    34    11     6   ar
    35    17    13    1
    36    25    20   ar
    37    35    29   ar
    38    28    24   ar
    39     4     5    1
    40    16    18    1
@<TRIPOS>MOLECULE
*****
 36 40 0 0 0
SMALL
GASTEIGER

@<TRIPOS>ATOM
      1 C         141.8625  143.6892  161.1557 C.3     1  UNL1        0.2588
      2 O         139.4473  142.7505  160.9666 O.2     1  UNL1       -0.2708
      3 C         140.8908  142.5593  161.3267 C.2     1  UNL1        0.2689
      4 N         141.3628  141.2381  161.8577 N.am    1  UNL1       -0.2664
      5 H         142.3102  141.1127  162.0939 H       1  UNL1        0.1564
      6 C         140.3912  140.1082  162.0286 C.ar    1  UNL1        0.1342
      7 C         139.7880  139.8350  163.3745 C.ar    1  UNL1        0.0345
      8 C         138.8164  138.7051  163.5455 C.ar    1  UNL1        0.0045
      9 C         138.4480  137.8484  162.3706 C.ar    1  UNL1        0.0208
     10 C         139.0512  138.1216  161.0247 C.ar    1  UNL1        0.1003
     11 N         140.0228  139.2516  160.8537 N.ar    1  UNL1       -0.2290
     12 C         142.4742  143.9555  159.8123 C.3     1  UNL1        0.1261
     13 N         141.7787  144.8586  158.8372 N.3     1  UNL1       -0.2650
     14 C         140.4006  145.4407  158.7276 C.3     1  UNL1        0.1033
     15 C         140.7952  146.1357  157.4582 C.3     1  UNL1        0.1423
     16 O         140.0997  147.0387  156.4831 O.3     1  UNL1       -0.3816
     17 C         142.1732  145.5536  157.5678 C.3     1  UNL1        0.1033
     18 H         139.1855  147.1847  156.7729 H       1  UNL1        0.2105
     19 O         142.2224  144.5528  162.3282 O.3     1  UNL1       -0.4529
     20 C         142.6629  143.9229  163.6164 C.ar    1  UNL1        0.2312
     21 N         144.1237  143.7255  163.8937 N.ar    1  UNL1       -0.1892
     22 C         144.5641  143.0957  165.1818 C.ar    1  UNL1        0.2029
     23 N         143.5437  142.6632  166.1926 N.ar    1  UNL1       -0.2046
     24 C         142.0829  142.8606  165.9153 C.ar    1  UNL1        0.1716
     25 C         141.6425  143.4904  164.6271 C.ar    1  UNL1        0.1098
     26 C         140.1438  143.5560  164.6318 C.ar    1  UNL1        0.1283
     27 N         139.6581  142.9667  165.9228 N.ar    1  UNL1       -0.1619
     28 N         140.8565  142.5369  166.7160 N.ar    1  UNL1       -0.2089
     29 C         140.8327  141.8959  168.0720 C.ar    1  UNL1        0.1222
     30 C         140.4865  142.7125  169.2816 C.ar    1  UNL1        0.1585
     31 F         140.1640  144.1702  169.1354 F       1  UNL1       -0.2026
     32 C         140.4627  142.0716  170.6375 C.ar    1  UNL1        0.0313
     33 C         140.7851  140.6140  170.7839 C.ar    1  UNL1        0.0033
     34 C         141.1314  139.7974  169.5742 C.ar    1  UNL1        0.0131
     35 C         141.1552  140.4383  168.2183 C.ar    1  UNL1        0.0776
     36 CL        141.5014  139.6217  167.0087 Cl      1  UNL1       -0.0806
@<TRIPOS>BOND
     1     2     3    2
     2     3     4   am
     3     4     6    1
     4     6     7   ar
     5     7     8   ar
     6     8     9   ar
     7     9    10   ar
     8    10    11   ar
     9     3     1    1
    10     1    12    1
    11    12    13    1
    12    13    14    1
    13    14    15    1
    14    15    16    1
    15    15    17    1
    16     1    19    1
    17    19    20    1
    18    20    21   ar
    19    21    22   ar
    20    22    23   ar
    21    23    24   ar
    22    24    25   ar
    23    25    26   ar
    24    26    27   ar
    25    27    28   ar
    26    28    29    1
    27    29    30   ar
    28    30    31    1
    29    30    32   ar
    30    32    33   ar
    31    33    34   ar
    32    34    35   ar
    33    35    36    1
    34    11     6   ar
    35    17    13    1
    36    25    20   ar
    37    35    29   ar
    38    28    24   ar
    39     4     5    1
    40    16    18    1
