@<TRIPOS>MOLECULE
*****
 40 45 0 0 0
SMALL
GASTEIGER

@<TRIPOS>ATOM
      1 C         137.8479  140.1555  162.1250 C.3     1  UNL1        0.0700
      2 C         137.6663  140.4315  163.5882 C.3     1  UNL1        0.0193
      3 C         137.6625  141.8451  164.0899 C.3     1  UNL1        0.0286
      4 C         137.8403  142.9827  163.1284 C.3     1  UNL1        0.0932
      5 C         138.0219  142.7066  161.6653 C.3     1  UNL1        0.0286
      6 C         138.0256  141.2929  161.1636 C.3     1  UNL1        0.0193
      7 O         137.8494  142.2249  162.8065 O.3     1  UNL1       -0.3572
      8 C         137.8528  140.9467  162.3528 C.3     1  UNL1        0.1562
      9 N         137.8516  138.7419  161.6233 N.3     1  UNL1       -0.2926
     10 H         137.4460  138.1664  162.3614 H       1  UNL1        0.1236
     11 C         139.1432  138.0903  161.2266 C.3     1  UNL1        0.1152
     12 O         145.9096  141.6519  162.7366 O.2     1  UNL1       -0.2707
     13 C         144.8722  140.6288  163.0931 C.2     1  UNL1        0.2718
     14 C         145.0528  139.7700  164.3095 C.3     1  UNL1        0.2898
     15 O         144.0154  138.7469  164.6660 O.3     1  UNL1       -0.4628
     16 C         142.7973  138.5827  163.8062 C.ar    1  UNL1        0.1708
     17 C         141.7599  137.5597  164.1627 C.ar    1  UNL1        0.0411
     18 C         140.5419  137.3955  163.3029 C.ar    1  UNL1        0.0193
     19 C         140.3612  138.2544  162.0864 C.ar    1  UNL1        0.0765
     20 N         141.3987  139.2775  161.7299 N.ar    1  UNL1       -0.2304
     21 C         142.6167  139.4416  162.5898 C.ar    1  UNL1        0.1682
     22 N         143.6542  140.4647  162.2333 N.am    1  UNL1       -0.2639
     23 H         143.5356  141.0284  161.4349 H       1  UNL1        0.1565
     24 C         137.8366  144.3963  163.6301 C.3     1  UNL1        0.0320
     25 C         138.9218  144.8678  164.5520 C.3     1  UNL1        0.0327
     26 C         140.3250  144.3675  164.3764 C.ar    1  UNL1        0.0260
     27 C         141.1831  144.9125  163.2733 C.ar    1  UNL1        0.1566
     28 F         140.6379  145.9578  162.3458 F       1  UNL1       -0.2028
     29 C         142.5862  144.4122  163.0977 C.ar    1  UNL1        0.1281
     30 N         143.1313  143.3669  164.0252 N.ar    1  UNL1       -0.2400
     31 C         142.2733  142.8219  165.1282 C.ar    1  UNL1        0.0987
     32 C         142.8184  141.7766  166.0557 C.ar    1  UNL1        0.0260
     33 C         141.9603  141.2316  167.1588 C.ar    1  UNL1        0.0920
     34 C         140.5572  141.7319  167.3344 C.ar    1  UNL1        0.1028
     35 N         140.0121  142.7772  166.4069 N.ar    1  UNL1       -0.2426
     36 C         140.8701  143.3222  165.3039 C.ar    1  UNL1        0.0971
     37 C         142.5054  140.1863  168.0863 C.3     1  UNL1        0.4201
     38 F         143.0505  139.1411  169.0137 F       1  UNL1       -0.1658
     39 F         142.9557  141.2602  169.0318 F       1  UNL1       -0.1658
     40 F         142.0551  139.1125  167.1407 F       1  UNL1       -0.1658
@<TRIPOS>BOND
     1    12    13    2
     2    13    14    1
     3    14    15    1
     4    15    16    1
     5    16    17   ar
     6    17    18   ar
     7    18    19   ar
     8    19    11    1
     9    11     9    1
    10     9     1    1
    11     1     2    1
    12     2     3    1
    13     3     4    1
    14     4    24    1
    15    24    25    1
    16    25    26    1
    17    26    27   ar
    18    27    28    1
    19    27    29   ar
    20    29    30   ar
    21    30    31   ar
    22    31    32   ar
    23    32    33   ar
    24    33    37    1
    25    37    38    1
    26    37    39    1
    27    37    40    1
    28    33    34   ar
    29    34    35   ar
    30    35    36   ar
    31     4     5    1
    32     5     6    1
    33     4     7    1
    34     7     8    1
    35    19    20   ar
    36    20    21   ar
    37    21    22    1
    38    22    13   am
    39    21    16   ar
    40     6     1    1
    41     8     1    1
    42    36    26   ar
    43    36    31   ar
    44     9    10    1
    45    22    23    1
@<TRIPOS>MOLECULE
*****
 40 45 0 0 0
SMALL
GASTEIGER

@<TRIPOS>ATOM
      1 C         144.3982  139.7854  163.6361 C.3     1  UNL1        0.0700
      2 C         144.0680  139.0901  162.3486 C.3     1  UNL1        0.0193
      3 C         142.8730  138.1871  162.2689 C.3     1  UNL1        0.0286
      4 C         142.0080  137.9793  163.4767 C.3     1  UNL1        0.0932
      5 C         142.3381  138.6746  164.7642 C.3     1  UNL1        0.0286
      6 C         143.5333  139.5777  164.8439 C.3     1  UNL1        0.0193
      7 O         142.6524  138.4835  163.5688 O.3     1  UNL1       -0.3572
      8 C         143.7330  139.3001  163.6409 C.3     1  UNL1        0.1562
      9 N         145.5932  140.6884  163.7158 N.3     1  UNL1       -0.2926
     10 H         145.7123  140.9331  164.6988 H       1  UNL1        0.1236
     11 C         145.6145  141.9743  162.9437 C.3     1  UNL1        0.1152
     12 O         139.9270  145.7394  159.1720 O.2     1  UNL1       -0.2707
     13 C         140.6290  145.3922  160.4513 C.2     1  UNL1        0.2718
     14 C         140.1372  145.9529  161.7527 C.3     1  UNL1        0.2898
     15 O         140.8392  145.6058  163.0320 O.3     1  UNL1       -0.4628
     16 C         142.0330  144.6979  163.0100 C.ar    1  UNL1        0.1708
     17 C         142.7350  144.3508  164.2893 C.ar    1  UNL1        0.0411
     18 C         143.9288  143.4429  164.2672 C.ar    1  UNL1        0.0193
     19 C         144.4207  142.8821  162.9658 C.ar    1  UNL1        0.0765
     20 N         143.7187  143.2293  161.6865 N.ar    1  UNL1       -0.2304
     21 C         142.5248  144.1372  161.7086 C.ar    1  UNL1        0.1682
     22 N         141.8228  144.4843  160.4292 N.am    1  UNL1       -0.2639
     23 H         142.1456  144.1163  159.5751 H       1  UNL1        0.1565
     24 C         140.8129  137.0763  163.3970 C.3     1  UNL1        0.0320
     25 C         139.4355  137.6621  163.2987 C.3     1  UNL1        0.0327
     26 C         139.2072  138.9121  162.5018 C.ar    1  UNL1        0.0260
     27 C         139.1188  138.8423  161.0060 C.ar    1  UNL1        0.1566
     28 F         139.2588  137.5224  160.3072 F       1  UNL1       -0.2028
     29 C         138.8905  140.0924  160.2090 C.ar    1  UNL1        0.1281
     30 N         138.7506  141.4123  160.9078 N.ar    1  UNL1       -0.2400
     31 C         138.8389  141.4821  162.4035 C.ar    1  UNL1        0.0987
     32 C         138.6990  142.8020  163.1023 C.ar    1  UNL1        0.0260
     33 C         138.7874  142.8718  164.5981 C.ar    1  UNL1        0.0920
     34 C         139.0157  141.6217  165.3951 C.ar    1  UNL1        0.1028
     35 N         139.1556  140.3018  164.6963 N.ar    1  UNL1       -0.2426
     36 C         139.0673  140.2320  163.2006 C.ar    1  UNL1        0.0971
     37 C         138.6474  144.1917  165.2969 C.3     1  UNL1        0.4201
     38 F         138.5075  145.5116  165.9957 F       1  UNL1       -0.1658
     39 F         137.3932  144.4688  164.5222 F       1  UNL1       -0.1658
     40 F         139.9016  143.9145  166.0716 F       1  UNL1       -0.1658
@<TRIPOS>BOND
     1    12    13    2
     2    13    14    1
     3    14    15    1
     4    15    16    1
     5    16    17   ar
     6    17    18   ar
     7    18    19   ar
     8    19    11    1
     9    11     9    1
    10     9     1    1
    11     1     2    1
    12     2     3    1
    13     3     4    1
    14     4    24    1
    15    24    25    1
    16    25    26    1
    17    26    27   ar
    18    27    28    1
    19    27    29   ar
    20    29    30   ar
    21    30    31   ar
    22    31    32   ar
    23    32    33   ar
    24    33    37    1
    25    37    38    1
    26    37    39    1
    27    37    40    1
    28    33    34   ar
    29    34    35   ar
    30    35    36   ar
    31     4     5    1
    32     5     6    1
    33     4     7    1
    34     7     8    1
    35    19    20   ar
    36    20    21   ar
    37    21    22    1
    38    22    13   am
    39    21    16   ar
    40     6     1    1
    41     8     1    1
    42    36    26   ar
    43    36    31   ar
    44     9    10    1
    45    22    23    1
@<TRIPOS>MOLECULE
*****
 40 45 0 0 0
SMALL
GASTEIGER

@<TRIPOS>ATOM
      1 C         144.2511  139.6250  163.4527 C.3     1  UNL1        0.0700
      2 C         144.0913  139.1533  164.8676 C.3     1  UNL1        0.0193
      3 C         142.8823  138.3573  165.2608 C.3     1  UNL1        0.0286
      4 C         141.8330  138.0331  164.2391 C.3     1  UNL1        0.0932
      5 C         141.9928  138.5048  162.8242 C.3     1  UNL1        0.0286
      6 C         143.2019  139.3008  162.4310 C.3     1  UNL1        0.0193
      7 O         142.4781  138.4720  163.9764 O.3     1  UNL1       -0.3572
      8 C         143.5714  139.1918  163.6208 C.3     1  UNL1        0.1562
      9 N         145.4602  140.4210  163.0595 N.3     1  UNL1       -0.2926
     10 H         146.2607  139.9870  163.5192 H       1  UNL1        0.1236
     11 C         145.5259  141.8873  163.3687 C.3     1  UNL1        0.1152
     12 O         140.5064  145.6881  158.7743 O.2     1  UNL1       -0.2707
     13 C         140.9585  145.2772  160.1442 C.2     1  UNL1        0.2718
     14 C         140.1894  145.7223  161.3527 C.3     1  UNL1        0.2898
     15 O         140.6414  145.3114  162.7226 O.3     1  UNL1       -0.4628
     16 C         141.8625  144.4554  162.8842 C.ar    1  UNL1        0.1708
     17 C         142.3146  144.0445  164.2541 C.ar    1  UNL1        0.0411
     18 C         143.5357  143.1885  164.4157 C.ar    1  UNL1        0.0193
     19 C         144.3048  142.7433  163.2072 C.ar    1  UNL1        0.0765
     20 N         143.8528  143.1542  161.8372 N.ar    1  UNL1       -0.2304
     21 C         142.6316  144.0103  161.6757 C.ar    1  UNL1        0.1682
     22 N         142.1796  144.4212  160.3058 N.am    1  UNL1       -0.2639
     23 H         142.6844  144.1290  159.5126 H       1  UNL1        0.1565
     24 C         140.6239  137.2371  164.6323 C.3     1  UNL1        0.0320
     25 C         139.3958  137.9371  165.1339 C.3     1  UNL1        0.0327
     26 C         139.2622  139.4228  164.9764 C.ar    1  UNL1        0.0260
     27 C         138.6008  139.9912  163.7559 C.ar    1  UNL1        0.1566
     28 F         138.0730  139.0738  162.6929 F       1  UNL1       -0.2028
     29 C         138.4672  141.4768  163.5984 C.ar    1  UNL1        0.1281
     30 N         138.9949  142.3942  164.6614 N.ar    1  UNL1       -0.2400
     31 C         139.6563  141.8259  165.8818 C.ar    1  UNL1        0.0987
     32 C         140.1841  142.7433  166.9448 C.ar    1  UNL1        0.0260
     33 C         140.8455  142.1749  168.1653 C.ar    1  UNL1        0.0920
     34 C         140.9791  140.6892  168.3228 C.ar    1  UNL1        0.1028
     35 N         140.4513  139.7719  167.2598 N.ar    1  UNL1       -0.2426
     36 C         139.7899  140.3402  166.0394 C.ar    1  UNL1        0.0971
     37 C         141.3732  143.0923  169.2283 C.3     1  UNL1        0.4201
     38 F         141.9010  144.0097  170.2912 F       1  UNL1       -0.1658
     39 F         140.0494  143.7958  169.2784 F       1  UNL1       -0.1658
     40 F         142.6971  142.3888  169.1781 F       1  UNL1       -0.1658
@<TRIPOS>BOND
     1    12    13    2
     2    13    14    1
     3    14    15    1
     4    15    16    1
     5    16    17   ar
     6    17    18   ar
     7    18    19   ar
     8    19    11    1
     9    11     9    1
    10     9     1    1
    11     1     2    1
    12     2     3    1
    13     3     4    1
    14     4    24    1
    15    24    25    1
    16    25    26    1
    17    26    27   ar
    18    27    28    1
    19    27    29   ar
    20    29    30   ar
    21    30    31   ar
    22    31    32   ar
    23    32    33   ar
    24    33    37    1
    25    37    38    1
    26    37    39    1
    27    37    40    1
    28    33    34   ar
    29    34    35   ar
    30    35    36   ar
    31     4     5    1
    32     5     6    1
    33     4     7    1
    34     7     8    1
    35    19    20   ar
    36    20    21   ar
    37    21    22    1
    38    22    13   am
    39    21    16   ar
    40     6     1    1
    41     8     1    1
    42    36    26   ar
    43    36    31   ar
    44     9    10    1
    45    22    23    1
@<TRIPOS>MOLECULE
*****
 40 45 0 0 0
SMALL
GASTEIGER

@<TRIPOS>ATOM
      1 C         141.3196  137.6628  164.1287 C.3     1  UNL1        0.0700
      2 C         141.8040  137.8240  162.7182 C.3     1  UNL1        0.0193
      3 C         140.8189  138.0277  161.6056 C.3     1  UNL1        0.0286
      4 C         139.3493  138.0703  161.9034 C.3     1  UNL1        0.0932
      5 C         138.8649  137.9091  163.3138 C.3     1  UNL1        0.0286
      6 C         139.8501  137.7054  164.4265 C.3     1  UNL1        0.0193
      7 O         139.8511  137.9564  162.5461 O.3     1  UNL1       -0.3572
      8 C         140.7419  137.7721  163.5522 C.3     1  UNL1        0.1562
      9 N         142.3047  137.4590  165.2413 N.3     1  UNL1       -0.2926
     10 H         141.7792  137.0979  166.0374 H       1  UNL1        0.1236
     11 C         143.1155  138.6156  165.7464 C.3     1  UNL1        0.1152
     12 O         140.5763  142.1781  172.1970 O.2     1  UNL1       -0.2707
     13 C         140.7415  142.1529  170.7064 C.2     1  UNL1        0.2718
     14 C         140.2254  143.2899  169.8753 C.3     1  UNL1        0.2898
     15 O         140.3906  143.2647  168.3846 O.3     1  UNL1       -0.4628
     16 C         141.0718  142.1024  167.7250 C.ar    1  UNL1        0.1708
     17 C         141.2370  142.0772  166.2344 C.ar    1  UNL1        0.0411
     18 C         141.9182  140.9150  165.5748 C.ar    1  UNL1        0.0193
     19 C         142.4343  139.7778  166.4059 C.ar    1  UNL1        0.0765
     20 N         142.2691  139.8031  167.8966 N.ar    1  UNL1       -0.2304
     21 C         141.5879  140.9654  168.5562 C.ar    1  UNL1        0.1682
     22 N         141.4227  140.9906  170.0468 N.am    1  UNL1       -0.2639
     23 H         141.7614  140.2443  170.5923 H       1  UNL1        0.1565
     24 C         138.3642  138.2741  160.7907 C.3     1  UNL1        0.0320
     25 C         137.4389  139.4544  160.8151 C.3     1  UNL1        0.0327
     26 C         137.9804  140.8365  160.5998 C.ar    1  UNL1        0.0260
     27 C         138.4172  141.2661  159.2305 C.ar    1  UNL1        0.1566
     28 F         138.3125  140.3134  158.0766 F       1  UNL1       -0.2028
     29 C         138.9588  142.6482  159.0152 C.ar    1  UNL1        0.1281
     30 N         139.0635  143.6009  160.1691 N.ar    1  UNL1       -0.2400
     31 C         138.6267  143.1714  161.5383 C.ar    1  UNL1        0.0987
     32 C         138.7315  144.1240  162.6922 C.ar    1  UNL1        0.0260
     33 C         138.2946  143.6945  164.0615 C.ar    1  UNL1        0.0920
     34 C         137.7531  142.3124  164.2768 C.ar    1  UNL1        0.1028
     35 N         137.6484  141.3597  163.1229 N.ar    1  UNL1       -0.2426
     36 C         138.0852  141.7892  161.7537 C.ar    1  UNL1        0.0971
     37 C         138.3994  144.6472  165.2154 C.3     1  UNL1        0.4201
     38 F         138.5041  145.5998  166.3692 F       1  UNL1       -0.1658
     39 F         136.9204  144.5372  165.4404 F       1  UNL1       -0.1658
     40 F         139.8783  144.7571  164.9903 F       1  UNL1       -0.1658
@<TRIPOS>BOND
     1    12    13    2
     2    13    14    1
     3    14    15    1
     4    15    16    1
     5    16    17   ar
     6    17    18   ar
     7    18    19   ar
     8    19    11    1
     9    11     9    1
    10     9     1    1
    11     1     2    1
    12     2     3    1
    13     3     4    1
    14     4    24    1
    15    24    25    1
    16    25    26    1
    17    26    27   ar
    18    27    28    1
    19    27    29   ar
    20    29    30   ar
    21    30    31   ar
    22    31    32   ar
    23    32    33   ar
    24    33    37    1
    25    37    38    1
    26    37    39    1
    27    37    40    1
    28    33    34   ar
    29    34    35   ar
    30    35    36   ar
    31     4     5    1
    32     5     6    1
    33     4     7    1
    34     7     8    1
    35    19    20   ar
    36    20    21   ar
    37    21    22    1
    38    22    13   am
    39    21    16   ar
    40     6     1    1
    41     8     1    1
    42    36    26   ar
    43    36    31   ar
    44     9    10    1
    45    22    23    1
@<TRIPOS>MOLECULE
*****
 40 45 0 0 0
SMALL
GASTEIGER

@<TRIPOS>ATOM
      1 C         140.2547  137.9618  161.8701 C.3     1  UNL1        0.0700
      2 C         141.0985  138.8303  160.9849 C.3     1  UNL1        0.0193
      3 C         142.4982  139.1822  161.3934 C.3     1  UNL1        0.0286
      4 C         143.0542  138.6655  162.6873 C.3     1  UNL1        0.0932
      5 C         142.2104  137.7969  163.5725 C.3     1  UNL1        0.0286
      6 C         140.8107  137.4450  163.1638 C.3     1  UNL1        0.0193
      7 O         142.2817  138.4458  162.5057 O.3     1  UNL1       -0.3572
      8 C         141.0161  138.1276  162.1363 C.3     1  UNL1        0.1562
      9 N         138.8550  137.6099  161.4615 N.3     1  UNL1       -0.2926
     10 H         138.8682  137.4765  160.4503 H       1  UNL1        0.1236
     11 C         137.7273  138.5531  161.7592 C.3     1  UNL1        0.1152
     12 O         139.1362  146.2183  161.6654 O.2     1  UNL1       -0.2707
     13 C         138.9338  144.9440  162.4303 C.2     1  UNL1        0.2718
     14 C         138.9986  144.9504  163.9288 C.3     1  UNL1        0.2898
     15 O         138.7962  143.6761  164.6938 O.3     1  UNL1       -0.4628
     16 C         138.5289  142.3953  163.9602 C.ar    1  UNL1        0.1708
     17 C         138.3265  141.1210  164.7251 C.ar    1  UNL1        0.0411
     18 C         138.0593  139.8403  163.9915 C.ar    1  UNL1        0.0193
     19 C         137.9945  139.8338  162.4928 C.ar    1  UNL1        0.0765
     20 N         138.1969  141.1081  161.7279 N.ar    1  UNL1       -0.2304
     21 C         138.4641  142.3889  162.4616 C.ar    1  UNL1        0.1682
     22 N         138.6666  143.6633  161.6967 N.am    1  UNL1       -0.2639
     23 H         138.6240  143.6590  160.7131 H       1  UNL1        0.1565
     24 C         144.4539  139.0174  163.0958 C.3     1  UNL1        0.0320
     25 C         144.6902  139.8600  164.3141 C.3     1  UNL1        0.0327
     26 C         143.8622  141.0886  164.5483 C.ar    1  UNL1        0.0260
     27 C         144.0410  142.2922  163.6710 C.ar    1  UNL1        0.1566
     28 F         145.0479  142.2671  162.5595 F       1  UNL1       -0.2028
     29 C         143.2130  143.5207  163.9053 C.ar    1  UNL1        0.1281
     30 N         142.2061  143.5458  165.0169 N.ar    1  UNL1       -0.2400
     31 C         142.0272  142.3424  165.8941 C.ar    1  UNL1        0.0987
     32 C         141.0203  142.3675  167.0057 C.ar    1  UNL1        0.0260
     33 C         140.8415  141.1639  167.8830 C.ar    1  UNL1        0.0920
     34 C         141.6695  139.9354  167.6487 C.ar    1  UNL1        0.1028
     35 N         142.6764  139.9103  166.5371 N.ar    1  UNL1       -0.2426
     36 C         142.8553  141.1137  165.6599 C.ar    1  UNL1        0.0971
     37 C         139.8346  141.1890  168.9945 C.3     1  UNL1        0.4201
     38 F         138.8277  141.2141  170.1061 F       1  UNL1       -0.1658
     39 F         140.0271  142.6700  169.1354 F       1  UNL1       -0.1658
     40 F         139.6422  139.7081  168.8536 F       1  UNL1       -0.1658
@<TRIPOS>BOND
     1    12    13    2
     2    13    14    1
     3    14    15    1
     4    15    16    1
     5    16    17   ar
     6    17    18   ar
     7    18    19   ar
     8    19    11    1
     9    11     9    1
    10     9     1    1
    11     1     2    1
    12     2     3    1
    13     3     4    1
    14     4    24    1
    15    24    25    1
    16    25    26    1
    17    26    27   ar
    18    27    28    1
    19    27    29   ar
    20    29    30   ar
    21    30    31   ar
    22    31    32   ar
    23    32    33   ar
    24    33    37    1
    25    37    38    1
    26    37    39    1
    27    37    40    1
    28    33    34   ar
    29    34    35   ar
    30    35    36   ar
    31     4     5    1
    32     5     6    1
    33     4     7    1
    34     7     8    1
    35    19    20   ar
    36    20    21   ar
    37    21    22    1
    38    22    13   am
    39    21    16   ar
    40     6     1    1
    41     8     1    1
    42    36    26   ar
    43    36    31   ar
    44     9    10    1
    45    22    23    1
@<TRIPOS>MOLECULE
*****
 40 45 0 0 0
SMALL
GASTEIGER

@<TRIPOS>ATOM
      1 C         142.2411  144.5322  162.9798 C.3     1  UNL1        0.0700
      2 C         142.6882  143.9160  161.6873 C.3     1  UNL1        0.0193
      3 C         143.6256  142.7451  161.6994 C.3     1  UNL1        0.0286
      4 C         144.1160  142.1904  163.0039 C.3     1  UNL1        0.0932
      5 C         143.6689  142.8065  164.2964 C.3     1  UNL1        0.0286
      6 C         142.7314  143.9775  164.2843 C.3     1  UNL1        0.0193
      7 O         143.6032  142.8331  163.0478 O.3     1  UNL1       -0.3572
      8 C         142.7556  143.8918  163.0369 C.3     1  UNL1        0.1562
      9 N         141.3036  145.7031  162.9678 N.3     1  UNL1       -0.2926
     10 H         141.5394  146.2774  163.7771 H       1  UNL1        0.1236
     11 C         139.8213  145.4776  163.0138 C.3     1  UNL1        0.1152
     12 O         137.7523  139.9590  157.9134 O.2     1  UNL1       -0.2707
     13 C         137.8813  140.4366  159.3295 C.2     1  UNL1        0.2718
     14 C         137.4497  139.5522  160.4615 C.3     1  UNL1        0.2898
     15 O         137.5787  140.0298  161.8776 O.3     1  UNL1       -0.4628
     16 C         138.1394  141.3917  162.1616 C.ar    1  UNL1        0.1708
     17 C         138.2684  141.8693  163.5777 C.ar    1  UNL1        0.0411
     18 C         138.8290  143.2312  163.8618 C.ar    1  UNL1        0.0193
     19 C         139.2607  144.1157  162.7297 C.ar    1  UNL1        0.0765
     20 N         139.1317  143.6381  161.3136 N.ar    1  UNL1       -0.2304
     21 C         138.5710  142.2761  161.0296 C.ar    1  UNL1        0.1682
     22 N         138.4420  141.7985  159.6135 N.am    1  UNL1       -0.2639
     23 H         138.7253  142.3790  158.8705 H       1  UNL1        0.1565
     24 C         145.0534  141.0195  163.0160 C.3     1  UNL1        0.0320
     25 C         144.6069  139.7070  163.5888 C.3     1  UNL1        0.0327
     26 C         143.3839  139.0290  163.0459 C.ar    1  UNL1        0.0260
     27 C         143.4053  138.4334  161.6694 C.ar    1  UNL1        0.1566
     28 F         144.6495  138.5158  160.8357 F       1  UNL1       -0.2028
     29 C         142.1823  137.7554  161.1265 C.ar    1  UNL1        0.1281
     30 N         140.9380  137.6730  161.9601 N.ar    1  UNL1       -0.2400
     31 C         140.9167  138.2686  163.3366 C.ar    1  UNL1        0.0987
     32 C         139.6724  138.1862  164.1703 C.ar    1  UNL1        0.0260
     33 C         139.6511  138.7819  165.5468 C.ar    1  UNL1        0.0920
     34 C         140.8740  139.4598  166.0897 C.ar    1  UNL1        0.1028
     35 N         142.1183  139.5422  165.2560 N.ar    1  UNL1       -0.2426
     36 C         142.1397  138.9467  163.8796 C.ar    1  UNL1        0.0971
     37 C         138.4068  138.6995  166.3805 C.3     1  UNL1        0.4201
     38 F         137.1625  138.6171  167.2141 F       1  UNL1       -0.1658
     39 F         138.1118  137.3455  165.8063 F       1  UNL1       -0.1658
     40 F         138.7018  140.0534  166.9547 F       1  UNL1       -0.1658
@<TRIPOS>BOND
     1    12    13    2
     2    13    14    1
     3    14    15    1
     4    15    16    1
     5    16    17   ar
     6    17    18   ar
     7    18    19   ar
     8    19    11    1
     9    11     9    1
    10     9     1    1
    11     1     2    1
    12     2     3    1
    13     3     4    1
    14     4    24    1
    15    24    25    1
    16    25    26    1
    17    26    27   ar
    18    27    28    1
    19    27    29   ar
    20    29    30   ar
    21    30    31   ar
    22    31    32   ar
    23    32    33   ar
    24    33    37    1
    25    37    38    1
    26    37    39    1
    27    37    40    1
    28    33    34   ar
    29    34    35   ar
    30    35    36   ar
    31     4     5    1
    32     5     6    1
    33     4     7    1
    34     7     8    1
    35    19    20   ar
    36    20    21   ar
    37    21    22    1
    38    22    13   am
    39    21    16   ar
    40     6     1    1
    41     8     1    1
    42    36    26   ar
    43    36    31   ar
    44     9    10    1
    45    22    23    1
@<TRIPOS>MOLECULE
*****
 40 45 0 0 0
SMALL
GASTEIGER

@<TRIPOS>ATOM
      1 C         141.3494  137.5401  164.2128 C.3     1  UNL1        0.0700
      2 C         141.8416  137.7401  162.8100 C.3     1  UNL1        0.0193
      3 C         140.8630  137.9818  161.6992 C.3     1  UNL1        0.0286
      4 C         139.3922  138.0234  161.9912 C.3     1  UNL1        0.0932
      5 C         138.9001  137.8234  163.3940 C.3     1  UNL1        0.0286
      6 C         139.8788  137.5817  164.5048 C.3     1  UNL1        0.0193
      7 O         139.8903  137.8879  162.6327 O.3     1  UNL1       -0.3572
      8 C         140.7751  137.6694  163.6371 C.3     1  UNL1        0.1562
      9 N         142.3280  137.2984  165.3236 N.3     1  UNL1       -0.2926
     10 H         141.8274  136.7880  166.0512 H       1  UNL1        0.1236
     11 C         143.0027  138.4582  165.9943 C.3     1  UNL1        0.1152
     12 O         141.9342  145.6933  163.2997 O.2     1  UNL1       -0.2707
     13 C         142.7652  144.4473  163.3820 C.2     1  UNL1        0.2718
     14 C         144.0711  144.3669  162.6484 C.3     1  UNL1        0.2898
     15 O         144.9021  143.1209  162.7307 O.3     1  UNL1       -0.4628
     16 C         144.4273  141.9552  163.5466 C.ar    1  UNL1        0.1708
     17 C         145.2583  140.7092  163.6289 C.ar    1  UNL1        0.0411
     18 C         144.7835  139.5435  164.4448 C.ar    1  UNL1        0.0193
     19 C         143.4776  139.6238  165.1785 C.ar    1  UNL1        0.0765
     20 N         142.6465  140.8699  165.0962 N.ar    1  UNL1       -0.2304
     21 C         143.1214  142.0356  164.2802 C.ar    1  UNL1        0.1682
     22 N         142.2904  143.2816  164.1979 N.am    1  UNL1       -0.2639
     23 H         141.4333  143.3344  164.6794 H       1  UNL1        0.1565
     24 C         138.4136  138.2651  160.8804 C.3     1  UNL1        0.0320
     25 C         137.5002  139.4538  160.9309 C.3     1  UNL1        0.0327
     26 C         138.0517  140.8328  160.7211 C.ar    1  UNL1        0.0260
     27 C         138.5391  141.2473  159.3644 C.ar    1  UNL1        0.1566
     28 F         138.4750  140.2827  158.2174 F       1  UNL1       -0.2028
     29 C         139.0905  142.6264  159.1546 C.ar    1  UNL1        0.1281
     30 N         139.1546  143.5910  160.3015 N.ar    1  UNL1       -0.2400
     31 C         138.6673  143.1766  161.6582 C.ar    1  UNL1        0.0987
     32 C         138.7314  144.1412  162.8051 C.ar    1  UNL1        0.0260
     33 C         138.2440  143.7267  164.1619 C.ar    1  UNL1        0.0920
     34 C         137.6925  142.3476  164.3716 C.ar    1  UNL1        0.1028
     35 N         137.6284  141.3830  163.2247 N.ar    1  UNL1       -0.2426
     36 C         138.1158  141.7974  161.8680 C.ar    1  UNL1        0.0971
     37 C         138.3081  144.6913  165.3088 C.3     1  UNL1        0.4201
     38 F         138.3722  145.6559  166.4557 F       1  UNL1       -0.1658
     39 F         136.8127  144.6572  165.4210 F       1  UNL1       -0.1658
     40 F         139.8035  144.7253  165.1966 F       1  UNL1       -0.1658
@<TRIPOS>BOND
     1    12    13    2
     2    13    14    1
     3    14    15    1
     4    15    16    1
     5    16    17   ar
     6    17    18   ar
     7    18    19   ar
     8    19    11    1
     9    11     9    1
    10     9     1    1
    11     1     2    1
    12     2     3    1
    13     3     4    1
    14     4    24    1
    15    24    25    1
    16    25    26    1
    17    26    27   ar
    18    27    28    1
    19    27    29   ar
    20    29    30   ar
    21    30    31   ar
    22    31    32   ar
    23    32    33   ar
    24    33    37    1
    25    37    38    1
    26    37    39    1
    27    37    40    1
    28    33    34   ar
    29    34    35   ar
    30    35    36   ar
    31     4     5    1
    32     5     6    1
    33     4     7    1
    34     7     8    1
    35    19    20   ar
    36    20    21   ar
    37    21    22    1
    38    22    13   am
    39    21    16   ar
    40     6     1    1
    41     8     1    1
    42    36    26   ar
    43    36    31   ar
    44     9    10    1
    45    22    23    1
@<TRIPOS>MOLECULE
*****
 40 45 0 0 0
SMALL
GASTEIGER

@<TRIPOS>ATOM
      1 C         141.4589  137.5588  162.3137 C.3     1  UNL1        0.0700
      2 C         140.0687  137.9835  161.9436 C.3     1  UNL1        0.0193
      3 C         139.0492  138.2296  163.0159 C.3     1  UNL1        0.0286
      4 C         139.4198  138.0510  164.4584 C.3     1  UNL1        0.0932
      5 C         140.8100  137.6263  164.8285 C.3     1  UNL1        0.0286
      6 C         141.8296  137.3802  163.7561 C.3     1  UNL1        0.0193
      7 O         140.0126  137.9045  163.9061 O.3     1  UNL1       -0.3572
      8 C         140.9345  137.6819  162.9364 C.3     1  UNL1        0.1562
      9 N         142.4784  137.3126  161.2413 N.3     1  UNL1       -0.2926
     10 H         142.7310  136.3259  161.2961 H       1  UNL1        0.1236
     11 C         143.7622  138.0885  161.2347 C.3     1  UNL1        0.1152
     12 O         144.7461  144.3413  165.7827 O.2     1  UNL1       -0.2707
     13 C         144.3959  143.7454  164.4514 C.2     1  UNL1        0.2718
     14 C         144.0234  144.6380  163.3049 C.3     1  UNL1        0.2898
     15 O         143.6732  144.0421  161.9736 O.3     1  UNL1       -0.4628
     16 C         143.6955  142.5537  161.7889 C.ar    1  UNL1        0.1708
     17 C         143.3453  141.9579  160.4576 C.ar    1  UNL1        0.0411
     18 C         143.3675  140.4695  160.2728 C.ar    1  UNL1        0.0193
     19 C         143.7400  139.5769  161.4194 C.ar    1  UNL1        0.0765
     20 N         144.0902  140.1727  162.7507 N.ar    1  UNL1       -0.2304
     21 C         144.0679  141.6612  162.9354 C.ar    1  UNL1        0.1682
     22 N         144.4181  142.2571  164.2667 N.am    1  UNL1       -0.2639
     23 H         144.6626  141.6712  165.0192 H       1  UNL1        0.1565
     24 C         138.4003  138.2972  165.5307 C.3     1  UNL1        0.0320
     25 C         138.1581  139.6908  166.0297 C.3     1  UNL1        0.0327
     26 C         139.2931  140.6688  166.1036 C.ar    1  UNL1        0.0260
     27 C         140.2416  140.6306  167.2651 C.ar    1  UNL1        0.1566
     28 F         140.0552  139.6144  168.3525 F       1  UNL1       -0.2028
     29 C         141.3766  141.6085  167.3390 C.ar    1  UNL1        0.1281
     30 N         141.5630  142.6247  166.2515 N.ar    1  UNL1       -0.2400
     31 C         140.6145  142.6630  165.0901 C.ar    1  UNL1        0.0987
     32 C         140.8009  143.6792  164.0027 C.ar    1  UNL1        0.0260
     33 C         139.8524  143.7174  162.8413 C.ar    1  UNL1        0.0920
     34 C         138.7174  142.7395  162.7673 C.ar    1  UNL1        0.1028
     35 N         138.5310  141.7233  163.8548 N.ar    1  UNL1       -0.2426
     36 C         139.4795  141.6850  165.0162 C.ar    1  UNL1        0.0971
     37 C         140.0388  144.7336  161.7538 C.3     1  UNL1        0.4201
     38 F         140.2252  145.7498  160.6663 F       1  UNL1       -0.1658
     39 F         139.2705  143.8607  160.8063 F       1  UNL1       -0.1658
     40 F         140.8071  145.6066  162.7013 F       1  UNL1       -0.1658
@<TRIPOS>BOND
     1    12    13    2
     2    13    14    1
     3    14    15    1
     4    15    16    1
     5    16    17   ar
     6    17    18   ar
     7    18    19   ar
     8    19    11    1
     9    11     9    1
    10     9     1    1
    11     1     2    1
    12     2     3    1
    13     3     4    1
    14     4    24    1
    15    24    25    1
    16    25    26    1
    17    26    27   ar
    18    27    28    1
    19    27    29   ar
    20    29    30   ar
    21    30    31   ar
    22    31    32   ar
    23    32    33   ar
    24    33    37    1
    25    37    38    1
    26    37    39    1
    27    37    40    1
    28    33    34   ar
    29    34    35   ar
    30    35    36   ar
    31     4     5    1
    32     5     6    1
    33     4     7    1
    34     7     8    1
    35    19    20   ar
    36    20    21   ar
    37    21    22    1
    38    22    13   am
    39    21    16   ar
    40     6     1    1
    41     8     1    1
    42    36    26   ar
    43    36    31   ar
    44     9    10    1
    45    22    23    1
@<TRIPOS>MOLECULE
*****
 40 45 0 0 0
SMALL
GASTEIGER

@<TRIPOS>ATOM
      1 C         144.3194  140.2677  162.6443 C.3     1  UNL1        0.0700
      2 C         143.3486  139.6906  161.6572 C.3     1  UNL1        0.0193
      3 C         142.3704  138.6405  162.0934 C.3     1  UNL1        0.0286
      4 C         142.3630  138.1674  163.5169 C.3     1  UNL1        0.0932
      5 C         143.3338  138.7445  164.5041 C.3     1  UNL1        0.0286
      6 C         144.3120  139.7947  164.0677 C.3     1  UNL1        0.0193
      7 O         142.9177  138.7448  163.3247 O.3     1  UNL1       -0.3572
      8 C         143.8022  139.6944  162.9302 C.3     1  UNL1        0.1562
      9 N         145.2975  141.3179  162.2081 N.3     1  UNL1       -0.2926
     10 H         146.1424  141.1822  162.7633 H       1  UNL1        0.1236
     11 C         144.9370  142.7699  162.3161 C.3     1  UNL1        0.1152
     12 O         138.2537  145.1461  165.5467 O.2     1  UNL1       -0.2707
     13 C         139.0513  144.7842  164.3290 C.2     1  UNL1        0.2718
     14 C         138.4190  144.8524  162.9706 C.3     1  UNL1        0.2898
     15 O         139.2166  144.4905  161.7529 O.3     1  UNL1       -0.4628
     16 C         140.6467  144.0603  161.8937 C.ar    1  UNL1        0.1708
     17 C         141.4444  143.6984  160.6760 C.ar    1  UNL1        0.0411
     18 C         142.8744  143.2683  160.8168 C.ar    1  UNL1        0.0193
     19 C         143.5069  143.2001  162.1753 C.ar    1  UNL1        0.0765
     20 N         142.7092  143.5620  163.3930 N.ar    1  UNL1       -0.2304
     21 C         141.2791  143.9921  163.2521 C.ar    1  UNL1        0.1682
     22 N         140.4814  144.3541  164.4698 N.am    1  UNL1       -0.2639
     23 H         140.8965  144.3093  165.3614 H       1  UNL1        0.1565
     24 C         141.3849  137.1173  163.9532 C.3     1  UNL1        0.0320
     25 C         140.2862  137.4678  164.9124 C.3     1  UNL1        0.0327
     26 C         139.7087  138.8522  164.9178 C.ar    1  UNL1        0.0260
     27 C         138.7018  139.2489  163.8791 C.ar    1  UNL1        0.1566
     28 F         138.2726  138.2612  162.8349 F       1  UNL1       -0.2028
     29 C         138.1243  140.6332  163.8845 C.ar    1  UNL1        0.1281
     30 N         138.5536  141.6209  164.9286 N.ar    1  UNL1       -0.2400
     31 C         139.5604  141.2242  165.9674 C.ar    1  UNL1        0.0987
     32 C         139.9897  142.2119  167.0115 C.ar    1  UNL1        0.0260
     33 C         140.9966  141.8151  168.0503 C.ar    1  UNL1        0.0920
     34 C         141.5741  140.4308  168.0448 C.ar    1  UNL1        0.1028
     35 N         141.1448  139.4431  167.0007 N.ar    1  UNL1       -0.2426
     36 C         140.1380  139.8398  165.9620 C.ar    1  UNL1        0.0971
     37 C         141.4258  142.8028  169.0944 C.3     1  UNL1        0.4201
     38 F         141.8551  143.7904  170.1386 F       1  UNL1       -0.1658
     39 F         140.2371  143.6593  168.7730 F       1  UNL1       -0.1658
     40 F         142.6146  141.9463  169.4158 F       1  UNL1       -0.1658
@<TRIPOS>BOND
     1    12    13    2
     2    13    14    1
     3    14    15    1
     4    15    16    1
     5    16    17   ar
     6    17    18   ar
     7    18    19   ar
     8    19    11    1
     9    11     9    1
    10     9     1    1
    11     1     2    1
    12     2     3    1
    13     3     4    1
    14     4    24    1
    15    24    25    1
    16    25    26    1
    17    26    27   ar
    18    27    28    1
    19    27    29   ar
    20    29    30   ar
    21    30    31   ar
    22    31    32   ar
    23    32    33   ar
    24    33    37    1
    25    37    38    1
    26    37    39    1
    27    37    40    1
    28    33    34   ar
    29    34    35   ar
    30    35    36   ar
    31     4     5    1
    32     5     6    1
    33     4     7    1
    34     7     8    1
    35    19    20   ar
    36    20    21   ar
    37    21    22    1
    38    22    13   am
    39    21    16   ar
    40     6     1    1
    41     8     1    1
    42    36    26   ar
    43    36    31   ar
    44     9    10    1
    45    22    23    1
