@<TRIPOS>MOLECULE
*****
 31 35 0 0 0
SMALL
GASTEIGER

@<TRIPOS>ATOM
      1 C         137.4644  142.6093  156.4233 C.3     1  UNL1        0.0181
      2 C         137.9183  142.4519  157.8444 C.3     1  UNL1        0.0036
      3 C         138.5913  142.5037  159.1839 C.3     1  UNL1        0.0227
      4 C         139.7342  143.4707  159.0915 C.3     1  UNL1        0.0870
      5 C         139.7676  144.0167  157.6948 C.3     1  UNL1        0.0227
      6 C         138.6453  143.3870  156.9241 C.3     1  UNL1        0.0036
      7 N         140.6780  143.8289  160.2010 N.ar    1  UNL1       -0.3109
      8 C         142.1584  144.0314  160.0683 C.ar    1  UNL1        0.1785
      9 N         142.7024  144.3752  161.4232 N.ar    1  UNL1       -0.2239
     10 C         141.5584  144.3850  162.3933 C.ar    1  UNL1        0.0988
     11 C         141.4943  144.6578  163.8668 C.ar    1  UNL1        0.0215
     12 C         140.1790  144.5930  164.5850 C.ar    1  UNL1        0.0130
     13 C         138.9278  144.2554  163.8296 C.ar    1  UNL1        0.0592
     14 CL        137.6125  144.1905  164.5479 Cl      1  UNL1       -0.0822
     15 C         138.9919  143.9826  162.3561 C.ar    1  UNL1        0.0301
     16 C         140.3072  144.0474  161.6379 C.ar    1  UNL1        0.0797
     17 C         136.5206  142.2511  155.3139 C.3     1  UNL1        0.0718
     18 N         135.0903  141.9218  155.6231 N.am    1  UNL1       -0.3025
     19 C         134.6479  140.4901  155.6899 C.2     1  UNL1        0.2458
     20 O         135.6358  139.3877  155.4476 O.2     1  UNL1       -0.2701
     21 H         134.4418  142.6453  155.7821 H       1  UNL1        0.1497
     22 C         133.2174  140.1607  155.9990 C.ar    1  UNL1        0.0534
     23 C         132.8706  138.8465  156.6333 C.ar    1  UNL1        0.0052
     24 C         131.4402  138.5171  156.9424 C.ar    1  UNL1        0.0104
     25 C         130.3567  139.5021  156.6172 C.ar    1  UNL1        0.0685
     26 C         130.7035  140.8164  155.9829 C.ar    1  UNL1        0.0104
     27 C         132.1338  141.1458  155.6738 C.ar    1  UNL1        0.0052
     28 C         128.9263  139.1728  156.9263 C.1     1  UNL1        0.1004
     29 N         127.4960  138.8435  157.2355 N.1     1  UNL1       -0.1908
     30 C         137.5811  143.4609  153.2739 C.3     1  UNL1        0.0017
     31 C         137.0072  142.2223  153.8953 C.3     1  UNL1        0.0196
@<TRIPOS>BOND
     1    30    31    1
     2    17    31    1
     3    17    18    1
     4    18    19   am
     5    19    20    2
     6    19    22    1
     7    22    23   ar
     8    23    24   ar
     9    24    25   ar
    10    25    28    1
    11    28    29    3
    12    25    26   ar
    13    26    27   ar
    14     1    17    1
    15     1     2    1
    16     2     3    1
    17     3     4    1
    18     4     7    1
    19     7     8   ar
    20     8     9   ar
    21     9    10   ar
    22    10    11   ar
    23    11    12   ar
    24    12    13   ar
    25    13    14    1
    26    13    15   ar
    27    15    16   ar
    28     4     5    1
    29     6     5    1
    30    27    22   ar
    31     6     1    1
    32     6     2    1
    33    16     7   ar
    34    16    10   ar
    35    18    21    1
@<TRIPOS>MOLECULE
*****
 31 35 0 0 0
SMALL
GASTEIGER

@<TRIPOS>ATOM
      1 C         140.4900  145.2075  158.0462 C.3     1  UNL1        0.0181
      2 C         140.3882  145.5710  159.4980 C.3     1  UNL1        0.0036
      3 C         140.1819  145.6404  160.9821 C.3     1  UNL1        0.0227
      4 C         139.6604  144.3109  161.4405 C.3     1  UNL1        0.0870
      5 C         139.5444  143.4195  160.2396 C.3     1  UNL1        0.0227
      6 C         139.9942  144.1983  159.0392 C.3     1  UNL1        0.0036
      7 N         139.3154  143.9380  162.8519 N.ar    1  UNL1       -0.3109
      8 C         137.9495  143.9922  163.4694 C.ar    1  UNL1        0.1785
      9 N         138.0658  143.5332  164.8926 N.ar    1  UNL1       -0.2239
     10 C         139.5035  143.1952  165.1548 C.ar    1  UNL1        0.0988
     11 C         140.2092  142.6920  166.3790 C.ar    1  UNL1        0.0215
     12 C         141.6872  142.4390  166.3419 C.ar    1  UNL1        0.0130
     13 C         142.4595  142.6892  165.0806 C.ar    1  UNL1        0.0592
     14 CL        143.9376  142.4362  165.0436 Cl      1  UNL1       -0.0822
     15 C         141.7539  143.1924  163.8564 C.ar    1  UNL1        0.0301
     16 C         140.2758  143.4454  163.8935 C.ar    1  UNL1        0.0797
     17 C         140.8349  145.5803  156.6349 C.3     1  UNL1        0.0718
     18 N         140.6731  146.9981  156.1728 N.am    1  UNL1       -0.3025
     19 C         139.4220  147.4161  155.4587 C.2     1  UNL1        0.2458
     20 O         138.3326  146.4162  155.2067 O.2     1  UNL1       -0.2701
     21 H         141.3881  147.6544  156.3382 H       1  UNL1        0.1497
     22 C         139.2602  148.8340  154.9966 C.ar    1  UNL1        0.0534
     23 C         139.7725  149.2465  153.6486 C.ar    1  UNL1        0.0052
     24 C         139.6107  150.6644  153.1864 C.ar    1  UNL1        0.0104
     25 C         138.9367  151.6697  154.0724 C.ar    1  UNL1        0.0685
     26 C         138.4243  151.2572  155.4205 C.ar    1  UNL1        0.0104
     27 C         138.5861  149.8393  155.8826 C.ar    1  UNL1        0.0052
     28 C         138.7749  153.0875  153.6103 C.1     1  UNL1        0.1004
     29 N         138.6131  154.5053  153.1482 N.1     1  UNL1       -0.1908
     30 C         142.5462  144.8142  154.8364 C.3     1  UNL1        0.0017
     31 C         141.3417  144.5353  155.6855 C.3     1  UNL1        0.0196
@<TRIPOS>BOND
     1    30    31    1
     2    17    31    1
     3    17    18    1
     4    18    19   am
     5    19    20    2
     6    19    22    1
     7    22    23   ar
     8    23    24   ar
     9    24    25   ar
    10    25    28    1
    11    28    29    3
    12    25    26   ar
    13    26    27   ar
    14     1    17    1
    15     1     2    1
    16     2     3    1
    17     3     4    1
    18     4     7    1
    19     7     8   ar
    20     8     9   ar
    21     9    10   ar
    22    10    11   ar
    23    11    12   ar
    24    12    13   ar
    25    13    14    1
    26    13    15   ar
    27    15    16   ar
    28     4     5    1
    29     6     5    1
    30    27    22   ar
    31     6     1    1
    32     6     2    1
    33    16     7   ar
    34    16    10   ar
    35    18    21    1
@<TRIPOS>MOLECULE
*****
 31 35 0 0 0
SMALL
GASTEIGER

@<TRIPOS>ATOM
      1 C         140.5513  140.6610  161.7067 C.3     1  UNL1        0.0181
      2 C         141.1099  141.3958  160.5242 C.3     1  UNL1        0.0036
      3 C         141.3993  142.2910  159.3559 C.3     1  UNL1        0.0227
      4 C         140.2289  143.2118  159.1763 C.3     1  UNL1        0.0870
      5 C         139.2160  142.8856  160.2335 C.3     1  UNL1        0.0227
      6 C         139.7605  141.7633  161.0666 C.3     1  UNL1        0.0036
      7 N         140.0948  144.2724  158.1241 N.ar    1  UNL1       -0.3109
      8 C         140.9274  145.5152  158.0139 C.ar    1  UNL1        0.1785
      9 N         140.4517  146.2873  156.8191 N.ar    1  UNL1       -0.2239
     10 C         139.3250  145.5217  156.1909 C.ar    1  UNL1        0.0988
     11 C         138.4715  145.7977  154.9887 C.ar    1  UNL1        0.0215
     12 C         137.3974  144.8283  154.5931 C.ar    1  UNL1        0.0130
     13 C         137.1769  143.5830  155.3996 C.ar    1  UNL1        0.0592
     14 CL        136.1027  142.6136  155.0039 Cl      1  UNL1       -0.0822
     15 C         138.0304  143.3070  156.6018 C.ar    1  UNL1        0.0301
     16 C         139.1044  144.2764  156.9975 C.ar    1  UNL1        0.0797
     17 C         140.6853  139.6004  162.7588 C.3     1  UNL1        0.0718
     18 N         140.8509  139.9885  164.1982 N.am    1  UNL1       -0.3025
     19 C         139.6511  140.3634  165.0167 C.2     1  UNL1        0.2458
     20 O         138.2857  140.3501  164.3958 O.2     1  UNL1       -0.2701
     21 H         141.7470  139.9973  164.6057 H       1  UNL1        0.1497
     22 C         139.8167  140.7515  166.4562 C.ar    1  UNL1        0.0534
     23 C         140.4710  142.0536  166.8114 C.ar    1  UNL1        0.0052
     24 C         140.6366  142.4418  168.2508 C.ar    1  UNL1        0.0104
     25 C         140.1479  141.5277  169.3350 C.ar    1  UNL1        0.0685
     26 C         139.4935  140.2255  168.9799 C.ar    1  UNL1        0.0104
     27 C         139.3279  139.8373  167.5405 C.ar    1  UNL1        0.0052
     28 C         140.3135  141.9158  170.7744 C.1     1  UNL1        0.1004
     29 N         140.4790  142.3040  172.2138 N.1     1  UNL1       -0.1908
     30 C         141.0319  137.0996  163.3716 C.3     1  UNL1        0.0017
     31 C         140.6538  138.1515  162.3715 C.3     1  UNL1        0.0196
@<TRIPOS>BOND
     1    30    31    1
     2    17    31    1
     3    17    18    1
     4    18    19   am
     5    19    20    2
     6    19    22    1
     7    22    23   ar
     8    23    24   ar
     9    24    25   ar
    10    25    28    1
    11    28    29    3
    12    25    26   ar
    13    26    27   ar
    14     1    17    1
    15     1     2    1
    16     2     3    1
    17     3     4    1
    18     4     7    1
    19     7     8   ar
    20     8     9   ar
    21     9    10   ar
    22    10    11   ar
    23    11    12   ar
    24    12    13   ar
    25    13    14    1
    26    13    15   ar
    27    15    16   ar
    28     4     5    1
    29     6     5    1
    30    27    22   ar
    31     6     1    1
    32     6     2    1
    33    16     7   ar
    34    16    10   ar
    35    18    21    1
@<TRIPOS>MOLECULE
*****
 31 35 0 0 0
SMALL
GASTEIGER

@<TRIPOS>ATOM
      1 C         141.7569  137.9398  157.6768 C.3     1  UNL1        0.0181
      2 C         141.3024  136.9430  156.6521 C.3     1  UNL1        0.0036
      3 C         141.1270  135.8132  155.6811 C.3     1  UNL1        0.0227
      4 C         142.3657  134.9686  155.7237 C.3     1  UNL1        0.0870
      5 C         143.3070  135.5763  156.7211 C.3     1  UNL1        0.0227
      6 C         142.6498  136.7965  157.2948 C.3     1  UNL1        0.0036
      7 N         142.6190  133.7331  154.9116 N.ar    1  UNL1       -0.3109
      8 C         142.2540  133.5353  153.4702 C.ar    1  UNL1        0.1785
      9 N         142.6911  132.1585  153.0662 N.ar    1  UNL1       -0.2239
     10 C         143.3262  131.5054  154.2578 C.ar    1  UNL1        0.0988
     11 C         143.9394  130.1502  154.4517 C.ar    1  UNL1        0.0215
     12 C         144.5079  129.7683  155.7862 C.ar    1  UNL1        0.0130
     13 C         144.4634  130.7415  156.9267 C.ar    1  UNL1        0.0592
     14 CL        145.0320  130.3595  158.2612 Cl      1  UNL1       -0.0822
     15 C         143.8502  132.0966  156.7329 C.ar    1  UNL1        0.0301
     16 C         143.2816  132.4785  155.3984 C.ar    1  UNL1        0.0797
     17 C         141.5037  139.1752  158.4889 C.3     1  UNL1        0.0718
     18 N         140.7098  139.0885  159.7586 N.am    1  UNL1       -0.3025
     19 C         141.3072  138.4437  160.9741 C.2     1  UNL1        0.2458
     20 O         142.6985  137.8857  160.9199 O.2     1  UNL1       -0.2701
     21 H         139.7967  139.4547  159.7942 H       1  UNL1        0.1497
     22 C         140.5133  138.3570  162.2439 C.ar    1  UNL1        0.0534
     23 C         139.2680  139.1770  162.4073 C.ar    1  UNL1        0.0052
     24 C         138.4741  139.0903  163.6770 C.ar    1  UNL1        0.0104
     25 C         138.9256  138.1836  164.7833 C.ar    1  UNL1        0.0685
     26 C         140.1709  137.3636  164.6200 C.ar    1  UNL1        0.0104
     27 C         140.9648  137.4503  163.3503 C.ar    1  UNL1        0.0052
     28 C         138.1317  138.0969  166.0531 C.1     1  UNL1        0.1004
     29 N         137.3378  138.0102  167.3228 N.1     1  UNL1       -0.1908
     30 C         143.2729  140.5487  157.1722 C.3     1  UNL1        0.0017
     31 C         142.0444  140.4974  158.0313 C.3     1  UNL1        0.0196
@<TRIPOS>BOND
     1    30    31    1
     2    17    31    1
     3    17    18    1
     4    18    19   am
     5    19    20    2
     6    19    22    1
     7    22    23   ar
     8    23    24   ar
     9    24    25   ar
    10    25    28    1
    11    28    29    3
    12    25    26   ar
    13    26    27   ar
    14     1    17    1
    15     1     2    1
    16     2     3    1
    17     3     4    1
    18     4     7    1
    19     7     8   ar
    20     8     9   ar
    21     9    10   ar
    22    10    11   ar
    23    11    12   ar
    24    12    13   ar
    25    13    14    1
    26    13    15   ar
    27    15    16   ar
    28     4     5    1
    29     6     5    1
    30    27    22   ar
    31     6     1    1
    32     6     2    1
    33    16     7   ar
    34    16    10   ar
    35    18    21    1
@<TRIPOS>MOLECULE
*****
 31 35 0 0 0
SMALL
GASTEIGER

@<TRIPOS>ATOM
      1 C         142.1133  139.3366  158.0519 C.3     1  UNL1        0.0181
      2 C         141.3124  139.1938  159.3122 C.3     1  UNL1        0.0036
      3 C         140.4360  139.3509  160.5194 C.3     1  UNL1        0.0227
      4 C         139.9079  140.7547  160.5295 C.3     1  UNL1        0.0870
      5 C         140.4578  141.4655  159.3285 C.3     1  UNL1        0.0227
      6 C         141.3258  140.5008  158.5762 C.3     1  UNL1        0.0036
      7 N         138.9909  141.3444  161.5597 N.ar    1  UNL1       -0.3109
      8 C         137.6213  140.8436  161.9110 C.ar    1  UNL1        0.1785
      9 N         137.0664  141.7282  162.9879 N.ar    1  UNL1       -0.2239
     10 C         138.0931  142.7757  163.3021 C.ar    1  UNL1        0.0988
     11 C         138.0985  143.9148  164.2780 C.ar    1  UNL1        0.0215
     12 C         139.2934  144.8168  164.3711 C.ar    1  UNL1        0.0130
     13 C         140.4828  144.5796  163.4885 C.ar    1  UNL1        0.0592
     14 CL        141.6777  145.4816  163.5817 Cl      1  UNL1       -0.0822
     15 C         140.4773  143.4405  162.5126 C.ar    1  UNL1        0.0301
     16 C         139.2825  142.5385  162.4195 C.ar    1  UNL1        0.0797
     17 C         143.0303  138.7470  157.0218 C.3     1  UNL1        0.0718
     18 N         143.1995  137.2593  156.9318 N.am    1  UNL1       -0.3025
     19 C         142.0889  136.4096  156.3890 C.2     1  UNL1        0.2458
     20 O         140.8092  137.0477  155.9360 O.2     1  UNL1       -0.2701
     21 H         144.0394  136.8405  157.2291 H       1  UNL1        0.1497
     22 C         142.2581  134.9218  156.2990 C.ar    1  UNL1        0.0534
     23 C         141.4337  134.1307  155.3273 C.ar    1  UNL1        0.0052
     24 C         141.6029  132.6430  155.2374 C.ar    1  UNL1        0.0104
     25 C         142.5965  131.9465  156.1192 C.ar    1  UNL1        0.0685
     26 C         143.4209  132.7377  157.0910 C.ar    1  UNL1        0.0104
     27 C         143.2517  134.2254  157.1810 C.ar    1  UNL1        0.0052
     28 C         142.7656  130.4588  156.0293 C.1     1  UNL1        0.1004
     29 N         142.9348  128.9711  155.9392 N.1     1  UNL1       -0.1908
     30 C         144.5389  140.8227  156.6147 C.3     1  UNL1        0.0017
     31 C         143.7783  139.6451  156.0814 C.3     1  UNL1        0.0196
@<TRIPOS>BOND
     1    30    31    1
     2    17    31    1
     3    17    18    1
     4    18    19   am
     5    19    20    2
     6    19    22    1
     7    22    23   ar
     8    23    24   ar
     9    24    25   ar
    10    25    28    1
    11    28    29    3
    12    25    26   ar
    13    26    27   ar
    14     1    17    1
    15     1     2    1
    16     2     3    1
    17     3     4    1
    18     4     7    1
    19     7     8   ar
    20     8     9   ar
    21     9    10   ar
    22    10    11   ar
    23    11    12   ar
    24    12    13   ar
    25    13    14    1
    26    13    15   ar
    27    15    16   ar
    28     4     5    1
    29     6     5    1
    30    27    22   ar
    31     6     1    1
    32     6     2    1
    33    16     7   ar
    34    16    10   ar
    35    18    21    1
@<TRIPOS>MOLECULE
*****
 31 35 0 0 0
SMALL
GASTEIGER

@<TRIPOS>ATOM
      1 C         141.7452  137.9447  157.0175 C.3     1  UNL1        0.0181
      2 C         142.7713  138.7740  157.7314 C.3     1  UNL1        0.0036
      3 C         143.5474  139.7539  158.5604 C.3     1  UNL1        0.0227
      4 C         142.5672  140.6476  159.2607 C.3     1  UNL1        0.0870
      5 C         141.1851  140.2200  158.8645 C.3     1  UNL1        0.0227
      6 C         141.3112  139.0621  157.9193 C.3     1  UNL1        0.0036
      7 N         142.9090  141.7715  160.1934 N.ar    1  UNL1       -0.3109
      8 C         142.6314  143.2269  159.9593 C.ar    1  UNL1        0.1785
      9 N         143.1392  143.9922  161.1453 N.ar    1  UNL1       -0.2239
     10 C         143.7306  143.0098  162.1123 C.ar    1  UNL1        0.0988
     11 C         144.3803  143.1877  163.4525 C.ar    1  UNL1        0.0215
     12 C         144.8876  141.9931  164.2045 C.ar    1  UNL1        0.0130
     13 C         144.7454  140.6206  163.6162 C.ar    1  UNL1        0.0592
     14 CL        145.2528  139.4260  164.3682 Cl      1  UNL1       -0.0822
     15 C         144.0957  140.4427  162.2760 C.ar    1  UNL1        0.0301
     16 C         143.5883  141.6373  161.5240 C.ar    1  UNL1        0.0797
     17 C         141.4034  136.8208  156.0849 C.3     1  UNL1        0.0718
     18 N         141.7240  135.4060  156.4661 N.am    1  UNL1       -0.3025
     19 C         143.1252  134.8898  156.3232 C.2     1  UNL1        0.2458
     20 O         144.2057  135.7885  155.7991 O.2     1  UNL1       -0.2701
     21 H         141.0148  134.8161  156.8101 H       1  UNL1        0.1497
     22 C         143.4458  133.4749  156.7044 C.ar    1  UNL1        0.0534
     23 C         144.6361  133.1824  157.5688 C.ar    1  UNL1        0.0052
     24 C         144.9567  131.7675  157.9501 C.ar    1  UNL1        0.0104
     25 C         144.0869  130.6451  157.4669 C.ar    1  UNL1        0.0685
     26 C         142.8964  130.9376  156.6024 C.ar    1  UNL1        0.0104
     27 C         142.5758  132.3524  156.2212 C.ar    1  UNL1        0.0052
     28 C         144.4075  129.2302  157.8481 C.1     1  UNL1        0.1004
     29 N         144.7280  127.8154  158.2294 N.1     1  UNL1       -0.1908
     30 C         139.6383  138.1256  154.6950 C.3     1  UNL1        0.0017
     31 C         140.7410  137.1117  154.7708 C.3     1  UNL1        0.0196
@<TRIPOS>BOND
     1    30    31    1
     2    17    31    1
     3    17    18    1
     4    18    19   am
     5    19    20    2
     6    19    22    1
     7    22    23   ar
     8    23    24   ar
     9    24    25   ar
    10    25    28    1
    11    28    29    3
    12    25    26   ar
    13    26    27   ar
    14     1    17    1
    15     1     2    1
    16     2     3    1
    17     3     4    1
    18     4     7    1
    19     7     8   ar
    20     8     9   ar
    21     9    10   ar
    22    10    11   ar
    23    11    12   ar
    24    12    13   ar
    25    13    14    1
    26    13    15   ar
    27    15    16   ar
    28     4     5    1
    29     6     5    1
    30    27    22   ar
    31     6     1    1
    32     6     2    1
    33    16     7   ar
    34    16    10   ar
    35    18    21    1
@<TRIPOS>MOLECULE
*****
 31 35 0 0 0
SMALL
GASTEIGER

@<TRIPOS>ATOM
      1 C         140.1794  138.3764  156.9723 C.3     1  UNL1        0.0181
      2 C         140.4070  138.7883  158.3966 C.3     1  UNL1        0.0036
      3 C         140.3735  139.3692  159.7792 C.3     1  UNL1        0.0227
      4 C         139.1733  140.2635  159.8774 C.3     1  UNL1        0.0870
      5 C         138.4649  140.2353  158.5556 C.3     1  UNL1        0.0227
      6 C         139.2273  139.3236  157.6404 C.3     1  UNL1        0.0036
      7 N         138.7549  141.0481  161.0854 N.ar    1  UNL1       -0.3109
      8 C         138.3674  142.4971  161.1048 C.ar    1  UNL1        0.1785
      9 N         138.0236  142.8660  162.5175 N.ar    1  UNL1       -0.2239
     10 C         138.1986  141.6451  163.3712 C.ar    1  UNL1        0.0988
     11 C         138.0047  141.4113  164.8401 C.ar    1  UNL1        0.0215
     12 C         138.2629  140.0539  165.4239 C.ar    1  UNL1        0.0130
     13 C         138.7149  138.9304  164.5388 C.ar    1  UNL1        0.0592
     14 CL        138.9730  137.5730  165.1227 Cl      1  UNL1       -0.0822
     15 C         138.9087  139.1642  163.0699 C.ar    1  UNL1        0.0301
     16 C         138.6506  140.5216  162.4861 C.ar    1  UNL1        0.0797
     17 C         140.5978  137.5918  155.7643 C.3     1  UNL1        0.0718
     18 N         141.0046  136.1551  155.9071 N.am    1  UNL1       -0.3025
     19 C         142.3750  135.8101  156.4102 C.2     1  UNL1        0.2458
     20 O         143.3385  136.9018  156.7705 O.2     1  UNL1       -0.2701
     21 H         140.3722  135.4386  155.6706 H       1  UNL1        0.1497
     22 C         142.7818  134.3733  156.5530 C.ar    1  UNL1        0.0534
     23 C         142.0110  133.3013  155.8414 C.ar    1  UNL1        0.0052
     24 C         142.4178  131.8646  155.9841 C.ar    1  UNL1        0.0104
     25 C         143.5954  131.5000  156.8386 C.ar    1  UNL1        0.0685
     26 C         144.3663  132.5720  157.5503 C.ar    1  UNL1        0.0104
     27 C         143.9595  134.0087  157.4075 C.ar    1  UNL1        0.0052
     28 C         144.0022  130.0633  156.9814 C.1     1  UNL1        0.1004
     29 N         144.4090  128.6266  157.1242 N.1     1  UNL1       -0.1908
     30 C         139.5135  139.1932  154.0295 C.3     1  UNL1        0.0017
     31 C         140.6094  138.2438  154.4134 C.3     1  UNL1        0.0196
@<TRIPOS>BOND
     1    30    31    1
     2    17    31    1
     3    17    18    1
     4    18    19   am
     5    19    20    2
     6    19    22    1
     7    22    23   ar
     8    23    24   ar
     9    24    25   ar
    10    25    28    1
    11    28    29    3
    12    25    26   ar
    13    26    27   ar
    14     1    17    1
    15     1     2    1
    16     2     3    1
    17     3     4    1
    18     4     7    1
    19     7     8   ar
    20     8     9   ar
    21     9    10   ar
    22    10    11   ar
    23    11    12   ar
    24    12    13   ar
    25    13    14    1
    26    13    15   ar
    27    15    16   ar
    28     4     5    1
    29     6     5    1
    30    27    22   ar
    31     6     1    1
    32     6     2    1
    33    16     7   ar
    34    16    10   ar
    35    18    21    1
@<TRIPOS>MOLECULE
*****
 31 35 0 0 0
SMALL
GASTEIGER

@<TRIPOS>ATOM
      1 C         140.1766  138.3431  158.3466 C.3     1  UNL1        0.0181
      2 C         140.7078  138.7749  159.6813 C.3     1  UNL1        0.0036
      3 C         140.9361  139.2159  161.0968 C.3     1  UNL1        0.0227
      4 C         139.5984  139.3498  161.7621 C.3     1  UNL1        0.0870
      5 C         138.5433  138.9917  160.7579 C.3     1  UNL1        0.0227
      6 C         139.2290  138.6363  159.4719 C.3     1  UNL1        0.0036
      7 N         139.3580  139.7685  163.1823 N.ar    1  UNL1       -0.3109
      8 C         138.1183  140.4286  163.7090 C.ar    1  UNL1        0.1785
      9 N         138.3092  140.6686  165.1774 N.ar    1  UNL1       -0.2239
     10 C         139.6669  140.1568  165.5581 C.ar    1  UNL1        0.0988
     11 C         140.3966  140.1254  166.8682 C.ar    1  UNL1        0.0215
     12 C         141.7745  139.5378  166.9453 C.ar    1  UNL1        0.0130
     13 C         142.4227  138.9815  165.7122 C.ar    1  UNL1        0.0592
     14 CL        143.8007  138.3938  165.7893 Cl      1  UNL1       -0.0822
     15 C         141.6929  139.0128  164.4021 C.ar    1  UNL1        0.0301
     16 C         140.3150  139.6005  164.3250 C.ar    1  UNL1        0.0797
     17 C         140.4170  137.9244  156.9265 C.3     1  UNL1        0.0718
     18 N         140.9468  136.5532  156.6283 N.am    1  UNL1       -0.3025
     19 C         142.4154  136.2735  156.7511 C.2     1  UNL1        0.2458
     20 O         143.3541  137.3650  157.1722 O.2     1  UNL1       -0.2701
     21 H         140.3307  135.8368  156.3519 H       1  UNL1        0.1497
     22 C         142.9452  134.9022  156.4528 C.ar    1  UNL1        0.0534
     23 C         143.7585  134.1725  157.4803 C.ar    1  UNL1        0.0052
     24 C         144.2883  132.8012  157.1821 C.ar    1  UNL1        0.0104
     25 C         144.0048  132.1597  155.8562 C.ar    1  UNL1        0.0685
     26 C         143.1915  132.8894  154.8285 C.ar    1  UNL1        0.0104
     27 C         142.6617  134.2607  155.1268 C.ar    1  UNL1        0.0052
     28 C         144.5346  130.7885  155.5579 C.1     1  UNL1        0.1004
     29 N         145.0645  129.4173  155.2596 N.1     1  UNL1       -0.1908
     30 C         138.8390  139.6445  155.7858 C.3     1  UNL1        0.0017
     31 C         140.1276  138.8771  155.8045 C.3     1  UNL1        0.0196
@<TRIPOS>BOND
     1    30    31    1
     2    17    31    1
     3    17    18    1
     4    18    19   am
     5    19    20    2
     6    19    22    1
     7    22    23   ar
     8    23    24   ar
     9    24    25   ar
    10    25    28    1
    11    28    29    3
    12    25    26   ar
    13    26    27   ar
    14     1    17    1
    15     1     2    1
    16     2     3    1
    17     3     4    1
    18     4     7    1
    19     7     8   ar
    20     8     9   ar
    21     9    10   ar
    22    10    11   ar
    23    11    12   ar
    24    12    13   ar
    25    13    14    1
    26    13    15   ar
    27    15    16   ar
    28     4     5    1
    29     6     5    1
    30    27    22   ar
    31     6     1    1
    32     6     2    1
    33    16     7   ar
    34    16    10   ar
    35    18    21    1
@<TRIPOS>MOLECULE
*****
 31 35 0 0 0
SMALL
GASTEIGER

@<TRIPOS>ATOM
      1 C         138.3300  142.2231  161.8866 C.3     1  UNL1        0.0181
      2 C         138.1505  141.0915  160.9183 C.3     1  UNL1        0.0036
      3 C         138.0345  140.1784  159.7339 C.3     1  UNL1        0.0227
      4 C         138.3005  140.9859  158.4982 C.3     1  UNL1        0.0870
      5 C         138.5810  142.3982  158.9187 C.3     1  UNL1        0.0227
      6 C         138.4883  142.4634  160.4145 C.3     1  UNL1        0.0036
      7 N         138.2882  140.4715  157.0892 N.ar    1  UNL1       -0.3109
      8 C         139.4530  139.8705  156.3598 C.ar    1  UNL1        0.1785
      9 N         138.9936  139.4954  154.9821 N.ar    1  UNL1       -0.2239
     10 C         137.5449  139.8646  154.8599 C.ar    1  UNL1        0.0988
     11 C         136.5664  139.7294  153.7311 C.ar    1  UNL1        0.0215
     12 C         135.1519  140.1974  153.9046 C.ar    1  UNL1        0.0130
     13 C         134.7160  140.8007  155.2069 C.ar    1  UNL1        0.0592
     14 CL        133.3014  141.2688  155.3804 Cl      1  UNL1       -0.0822
     15 C         135.6944  140.9359  156.3357 C.ar    1  UNL1        0.0301
     16 C         137.1089  140.4679  156.1622 C.ar    1  UNL1        0.0797
     17 C         138.3423  142.7374  163.2955 C.3     1  UNL1        0.0718
     18 N         138.9338  141.9037  164.3933 N.am    1  UNL1       -0.3025
     19 C         140.3343  142.1657  164.8625 C.2     1  UNL1        0.2458
     20 O         141.1432  143.2615  164.2340 O.2     1  UNL1       -0.2701
     21 H         138.4030  141.1845  164.8057 H       1  UNL1        0.1497
     22 C         140.9258  141.3319  165.9603 C.ar    1  UNL1        0.0534
     23 C         141.8282  140.1816  165.6251 C.ar    1  UNL1        0.0052
     24 C         142.4197  139.3479  166.7228 C.ar    1  UNL1        0.0104
     25 C         142.1088  139.6645  168.1557 C.ar    1  UNL1        0.0685
     26 C         141.2064  140.8149  168.4908 C.ar    1  UNL1        0.0104
     27 C         140.6149  141.6486  167.3932 C.ar    1  UNL1        0.0052
     28 C         142.7003  138.8308  169.2534 C.1     1  UNL1        0.1004
     29 N         143.2919  137.9970  170.3510 N.1     1  UNL1       -0.1908
     30 C         137.9187  144.6700  164.9795 C.3     1  UNL1        0.0017
     31 C         137.7630  144.0856  163.6069 C.3     1  UNL1        0.0196
@<TRIPOS>BOND
     1    30    31    1
     2    17    31    1
     3    17    18    1
     4    18    19   am
     5    19    20    2
     6    19    22    1
     7    22    23   ar
     8    23    24   ar
     9    24    25   ar
    10    25    28    1
    11    28    29    3
    12    25    26   ar
    13    26    27   ar
    14     1    17    1
    15     1     2    1
    16     2     3    1
    17     3     4    1
    18     4     7    1
    19     7     8   ar
    20     8     9   ar
    21     9    10   ar
    22    10    11   ar
    23    11    12   ar
    24    12    13   ar
    25    13    14    1
    26    13    15   ar
    27    15    16   ar
    28     4     5    1
    29     6     5    1
    30    27    22   ar
    31     6     1    1
    32     6     2    1
    33    16     7   ar
    34    16    10   ar
    35    18    21    1
