@<TRIPOS>MOLECULE
*****
 41 45 0 0 0
SMALL
GASTEIGER

@<TRIPOS>ATOM
      1 C         138.1192  139.9542  159.5406 C.3     1  UNL1        0.0758
      2 C         139.1751  138.8904  159.5977 C.3     1  UNL1        0.0370
      3 C         139.9671  138.5531  158.3693 C.3     1  UNL1        0.0741
      4 N         139.7032  139.2798  157.0839 N.3     1  UNL1       -0.2688
      5 C         138.6474  140.3436  157.0268 C.3     1  UNL1        0.0741
      6 C         137.8554  140.6809  158.2552 C.3     1  UNL1        0.0370
      7 O         139.4158  141.4428  161.7997 O.2     1  UNL1       -0.2528
      8 C         137.9754  141.0358  161.8985 C.2     1  UNL1        0.3010
      9 N         137.3272  140.2915  160.7691 N.am    1  UNL1       -0.2905
     10 N         137.1834  141.3731  163.1270 N.am    1  UNL1       -0.2848
     11 H         136.3818  140.0244  160.8340 H       1  UNL1        0.1509
     12 H         136.2380  141.1060  163.1919 H       1  UNL1        0.1513
     13 C         137.8316  142.1174  164.2564 C.3     1  UNL1        0.1200
     14 C         138.5569  141.3646  165.3322 C.ar    1  UNL1       -0.0025
     15 C         139.6963  142.0115  166.0625 C.ar    1  UNL1       -0.0026
     16 C         140.4216  141.2587  167.1382 C.ar    1  UNL1       -0.0003
     17 C         140.0075  139.8590  167.4837 C.ar    1  UNL1       -0.0000
     18 C         138.8681  139.2121  166.7535 C.ar    1  UNL1       -0.0003
     19 C         138.1428  139.9649  165.6777 C.ar    1  UNL1       -0.0026
     20 C         137.7547  143.6144  164.3101 C.3     1  UNL1        0.1533
     21 N         138.7154  144.4440  163.5109 N.ar    1  UNL1       -0.2280
     22 C         140.1565  144.6914  163.8454 C.ar    1  UNL1        0.1973
     23 N         140.7355  145.5721  162.7781 N.ar    1  UNL1       -0.2007
     24 C         139.6522  145.8690  161.7839 C.ar    1  UNL1        0.2210
     25 N         138.4037  145.1718  162.2369 N.ar    1  UNL1       -0.1451
     26 C         140.4953  138.9425  155.8555 C.3     1  UNL1        0.1007
     27 C         140.7880  137.5097  155.5218 C.ar    1  UNL1        0.0129
     28 C         140.3049  136.7704  154.3093 C.ar    1  UNL1        0.0176
     29 C         140.8335  135.3684  154.3801 C.ar    1  UNL1        0.0799
     30 N         141.6433  135.2412  155.6364 N.ar    1  UNL1       -0.3038
     31 C         141.6151  136.5646  156.3419 C.ar    1  UNL1        0.0772
     32 C         142.3560  134.0073  156.1047 C.ar    1  UNL1        0.0640
     33 C         141.8479  132.6523  155.7102 C.ar    1  UNL1        0.0175
     34 C         142.5607  131.4184  156.1786 C.ar    1  UNL1        0.0053
     35 C         143.7815  131.5394  157.0415 C.ar    1  UNL1        0.0715
     36 C         144.2897  132.8944  157.4362 C.ar    1  UNL1        0.0053
     37 C         143.5769  134.1284  156.9678 C.ar    1  UNL1        0.0175
     38 C         144.4942  130.3055  157.5099 C.3     1  UNL1        0.4186
     39 F         145.2070  129.0715  157.9783 F       1  UNL1       -0.1659
     40 F         145.3107  131.1360  158.4553 F       1  UNL1       -0.1659
     41 F         143.6778  129.4750  156.5645 F       1  UNL1       -0.1659
@<TRIPOS>BOND
     1     7     8    2
     2     8     9   am
     3     9     1    1
     4     1     2    1
     5     2     3    1
     6     3     4    1
     7     4    26    1
     8    26    27    1
     9    27    28   ar
    10    28    29   ar
    11    29    30   ar
    12    30    32    1
    13    32    33   ar
    14    33    34   ar
    15    34    35   ar
    16    35    38    1
    17    38    39    1
    18    38    40    1
    19    38    41    1
    20    35    36   ar
    21    36    37   ar
    22    30    31   ar
    23     4     5    1
    24     5     6    1
    25     8    10   am
    26    10    13    1
    27    13    20    1
    28    20    21    1
    29    21    22   ar
    30    22    23   ar
    31    23    24   ar
    32    24    25   ar
    33    13    14    1
    34    14    15   ar
    35    15    16   ar
    36    16    17   ar
    37    17    18   ar
    38    18    19   ar
    39     6     1    1
    40    25    21   ar
    41    19    14   ar
    42    31    27   ar
    43    37    32   ar
    44     9    11    1
    45    10    12    1
@<TRIPOS>MOLECULE
*****
 41 45 0 0 0
SMALL
GASTEIGER

@<TRIPOS>ATOM
      1 C         140.8689  138.1470  161.2247 C.3     1  UNL1        0.0758
      2 C         140.0434  138.4795  160.0173 C.3     1  UNL1        0.0370
      3 C         140.6721  138.4781  158.6554 C.3     1  UNL1        0.0741
      4 N         142.1263  138.1443  158.5010 N.3     1  UNL1       -0.2688
      5 C         142.9518  137.8119  159.7085 C.3     1  UNL1        0.0741
      6 C         142.3231  137.8132  161.0703 C.3     1  UNL1        0.0370
      7 O         141.1653  140.5387  163.0114 O.2     1  UNL1       -0.2528
      8 C         140.3884  139.3442  163.4799 C.2     1  UNL1        0.3010
      9 N         140.2402  138.1484  162.5867 N.am    1  UNL1       -0.2905
     10 N         139.7597  139.3456  164.8419 N.am    1  UNL1       -0.2848
     11 H         139.7302  137.3644  162.8942 H       1  UNL1        0.1509
     12 H         139.2498  138.5616  165.1494 H       1  UNL1        0.1513
     13 C         139.9079  140.5414  165.7352 C.3     1  UNL1        0.1200
     14 C         139.2850  141.8495  165.3467 C.ar    1  UNL1       -0.0025
     15 C         139.9126  143.1390  165.7866 C.ar    1  UNL1       -0.0026
     16 C         139.2898  144.4470  165.3981 C.ar    1  UNL1       -0.0003
     17 C         138.0393  144.4657  164.5698 C.ar    1  UNL1       -0.0000
     18 C         137.4118  143.1763  164.1300 C.ar    1  UNL1       -0.0003
     19 C         138.0346  141.8681  164.5184 C.ar    1  UNL1       -0.0026
     20 C         140.6790  140.4291  167.0169 C.3     1  UNL1        0.1533
     21 N         139.9802  140.6141  168.3312 N.ar    1  UNL1       -0.2280
     22 C         140.2237  141.7237  169.3107 C.ar    1  UNL1        0.1973
     23 N         139.3092  141.5173  170.4817 N.ar    1  UNL1       -0.2007
     24 C         138.5004  140.2802  170.2258 C.ar    1  UNL1        0.2210
     25 N         138.9151  139.7220  168.8967 N.ar    1  UNL1       -0.1451
     26 C         142.7550  138.1430  157.1391 C.3     1  UNL1        0.1007
     27 C         142.9190  136.8538  156.3900 C.ar    1  UNL1        0.0129
     28 C         142.6996  136.6545  154.9196 C.ar    1  UNL1        0.0176
     29 C         142.9761  135.2152  154.6006 C.ar    1  UNL1        0.0799
     30 N         143.3664  134.5248  155.8739 N.ar    1  UNL1       -0.3038
     31 C         143.3311  135.5376  156.9798 C.ar    1  UNL1        0.0772
     32 C         143.7284  133.0762  156.0162 C.ar    1  UNL1        0.0640
     33 C         143.5103  132.1326  154.8709 C.ar    1  UNL1        0.0175
     34 C         143.8723  130.6839  155.0133 C.ar    1  UNL1        0.0053
     35 C         144.4524  130.1788  156.3009 C.ar    1  UNL1        0.0715
     36 C         144.6705  131.1224  157.4464 C.ar    1  UNL1        0.0053
     37 C         144.3085  132.5711  157.3040 C.ar    1  UNL1        0.0175
     38 C         144.8144  128.7302  156.4433 C.3     1  UNL1        0.4186
     39 F         145.1764  127.2815  156.5856 F       1  UNL1       -0.1659
     40 F         144.0821  128.6757  157.7512 F       1  UNL1       -0.1659
     41 F         145.5467  128.7846  155.1353 F       1  UNL1       -0.1659
@<TRIPOS>BOND
     1     7     8    2
     2     8     9   am
     3     9     1    1
     4     1     2    1
     5     2     3    1
     6     3     4    1
     7     4    26    1
     8    26    27    1
     9    27    28   ar
    10    28    29   ar
    11    29    30   ar
    12    30    32    1
    13    32    33   ar
    14    33    34   ar
    15    34    35   ar
    16    35    38    1
    17    38    39    1
    18    38    40    1
    19    38    41    1
    20    35    36   ar
    21    36    37   ar
    22    30    31   ar
    23     4     5    1
    24     5     6    1
    25     8    10   am
    26    10    13    1
    27    13    20    1
    28    20    21    1
    29    21    22   ar
    30    22    23   ar
    31    23    24   ar
    32    24    25   ar
    33    13    14    1
    34    14    15   ar
    35    15    16   ar
    36    16    17   ar
    37    17    18   ar
    38    18    19   ar
    39     6     1    1
    40    25    21   ar
    41    19    14   ar
    42    31    27   ar
    43    37    32   ar
    44     9    11    1
    45    10    12    1
@<TRIPOS>MOLECULE
*****
 41 45 0 0 0
SMALL
GASTEIGER

@<TRIPOS>ATOM
      1 C         142.2137  140.7817  161.0675 C.3     1  UNL1        0.0758
      2 C         141.7736  141.5599  159.8631 C.3     1  UNL1        0.0370
      3 C         141.5049  140.8505  158.5690 C.3     1  UNL1        0.0741
      4 N         141.6764  139.3631  158.4794 N.3     1  UNL1       -0.2688
      5 C         142.1166  138.5849  159.6838 C.3     1  UNL1        0.0741
      6 C         142.3852  139.2942  160.9779 C.3     1  UNL1        0.0370
      7 O         139.9449  141.4398  162.9166 O.2     1  UNL1       -0.2528
      8 C         141.3480  141.8200  163.2862 C.2     1  UNL1        0.3010
      9 N         142.4824  141.4910  162.3616 N.am    1  UNL1       -0.2905
     10 N         141.6167  142.5293  164.5803 N.am    1  UNL1       -0.2848
     11 H         143.4034  141.7406  162.6042 H       1  UNL1        0.1509
     12 H         142.5377  142.7789  164.8229 H       1  UNL1        0.1513
     13 C         140.4823  142.8583  165.5049 C.3     1  UNL1        0.1200
     14 C         140.2045  141.9843  166.6917 C.ar    1  UNL1       -0.0025
     15 C         140.5598  142.4564  168.0705 C.ar    1  UNL1       -0.0026
     16 C         140.2820  141.5823  169.2574 C.ar    1  UNL1       -0.0003
     17 C         139.6488  140.2361  169.0656 C.ar    1  UNL1       -0.0000
     18 C         139.2935  139.7640  167.6870 C.ar    1  UNL1       -0.0003
     19 C         139.5713  140.6381  166.5000 C.ar    1  UNL1       -0.0026
     20 C         139.6257  144.0614  165.2425 C.3     1  UNL1        0.1533
     21 N         139.6324  144.7059  163.8881 N.ar    1  UNL1       -0.2280
     22 C         138.4672  144.7937  162.9476 C.ar    1  UNL1        0.1973
     23 N         138.9201  145.5178  161.7146 N.ar    1  UNL1       -0.2007
     24 C         140.3654  145.8777  161.8929 C.ar    1  UNL1        0.2210
     25 N         140.8056  145.3759  163.2362 N.ar    1  UNL1       -0.1451
     26 C         141.4077  138.6538  157.1852 C.3     1  UNL1        0.1007
     27 C         142.3589  137.6030  156.6943 C.ar    1  UNL1        0.0129
     28 C         143.5499  137.8347  155.8123 C.ar    1  UNL1        0.0176
     29 C         144.2132  136.5109  155.5720 C.ar    1  UNL1        0.0799
     30 N         143.4323  135.4611  156.3056 N.ar    1  UNL1       -0.3038
     31 C         142.2863  136.1361  156.9992 C.ar    1  UNL1        0.0772
     32 C         143.7428  133.9941  156.3397 C.ar    1  UNL1        0.0640
     33 C         143.4500  133.1375  155.1437 C.ar    1  UNL1        0.0175
     34 C         143.7605  131.6704  155.1777 C.ar    1  UNL1        0.0053
     35 C         144.3639  131.0599  156.4077 C.ar    1  UNL1        0.0715
     36 C         144.6568  131.9164  157.6038 C.ar    1  UNL1        0.0053
     37 C         144.3462  133.3835  157.5698 C.ar    1  UNL1        0.0175
     38 C         144.6745  129.5928  156.4417 C.3     1  UNL1        0.4186
     39 F         144.9850  128.1257  156.4758 F       1  UNL1       -0.1659
     40 F         145.2272  129.6775  155.0498 F       1  UNL1       -0.1659
     41 F         144.1217  129.5080  157.8336 F       1  UNL1       -0.1659
@<TRIPOS>BOND
     1     7     8    2
     2     8     9   am
     3     9     1    1
     4     1     2    1
     5     2     3    1
     6     3     4    1
     7     4    26    1
     8    26    27    1
     9    27    28   ar
    10    28    29   ar
    11    29    30   ar
    12    30    32    1
    13    32    33   ar
    14    33    34   ar
    15    34    35   ar
    16    35    38    1
    17    38    39    1
    18    38    40    1
    19    38    41    1
    20    35    36   ar
    21    36    37   ar
    22    30    31   ar
    23     4     5    1
    24     5     6    1
    25     8    10   am
    26    10    13    1
    27    13    20    1
    28    20    21    1
    29    21    22   ar
    30    22    23   ar
    31    23    24   ar
    32    24    25   ar
    33    13    14    1
    34    14    15   ar
    35    15    16   ar
    36    16    17   ar
    37    17    18   ar
    38    18    19   ar
    39     6     1    1
    40    25    21   ar
    41    19    14   ar
    42    31    27   ar
    43    37    32   ar
    44     9    11    1
    45    10    12    1
@<TRIPOS>MOLECULE
*****
 41 45 0 0 0
SMALL
GASTEIGER

@<TRIPOS>ATOM
      1 C         143.4095  139.3564  161.0532 C.3     1  UNL1        0.0758
      2 C         143.8287  140.3538  160.0143 C.3     1  UNL1        0.0370
      3 C         143.7087  140.0152  158.5580 C.3     1  UNL1        0.0741
      4 N         143.1696  138.6791  158.1406 N.3     1  UNL1       -0.2688
      5 C         142.7504  137.6817  159.1795 C.3     1  UNL1        0.0741
      6 C         142.8704  138.0203  160.6358 C.3     1  UNL1        0.0370
      7 O         141.1729  140.7872  162.4497 O.2     1  UNL1       -0.2528
      8 C         142.4112  140.4104  163.2078 C.2     1  UNL1        0.3010
      9 N         143.5294  139.6951  162.5096 N.am    1  UNL1       -0.2905
     10 N         142.5311  140.7491  164.6642 N.am    1  UNL1       -0.2848
     11 H         144.3422  139.4478  163.0071 H       1  UNL1        0.1509
     12 H         143.3438  140.5018  165.1618 H       1  UNL1        0.1513
     13 C         141.4128  141.4645  165.3625 C.3     1  UNL1        0.1200
     14 C         140.3068  140.6810  166.0049 C.ar    1  UNL1       -0.0025
     15 C         140.2038  140.6163  167.5000 C.ar    1  UNL1       -0.0026
     16 C         139.0977  139.8328  168.1424 C.ar    1  UNL1       -0.0003
     17 C         138.0947  139.1139  167.2897 C.ar    1  UNL1       -0.0000
     18 C         138.1976  139.1785  165.7947 C.ar    1  UNL1       -0.0003
     19 C         139.3037  139.9621  165.1522 C.ar    1  UNL1       -0.0026
     20 C         141.4006  142.9634  165.4183 C.3     1  UNL1        0.1533
     21 N         140.6892  143.7477  164.3559 N.ar    1  UNL1       -0.2280
     22 C         141.3245  144.7087  163.3953 C.ar    1  UNL1        0.1973
     23 N         140.2456  145.2637  162.5132 N.ar    1  UNL1       -0.2007
     24 C         138.9435  144.6456  162.9287 C.ar    1  UNL1        0.2210
     25 N         139.2177  143.7087  164.0675 N.ar    1  UNL1       -0.1451
     26 C         143.0496  138.3405  156.6842 C.3     1  UNL1        0.1007
     27 C         142.7001  136.9432  156.2654 C.ar    1  UNL1        0.0129
     28 C         141.3399  136.4589  155.8586 C.ar    1  UNL1        0.0176
     29 C         141.4485  135.0013  155.5216 C.ar    1  UNL1        0.0799
     30 N         142.8759  134.5847  155.7201 N.ar    1  UNL1       -0.3038
     31 C         143.6493  135.7849  156.1798 C.ar    1  UNL1        0.0772
     32 C         143.4320  133.2095  155.4980 C.ar    1  UNL1        0.0640
     33 C         144.4215  132.6349  156.4678 C.ar    1  UNL1        0.0175
     34 C         144.9776  131.2596  156.2456 C.ar    1  UNL1        0.0053
     35 C         144.5442  130.4589  155.0536 C.ar    1  UNL1        0.0715
     36 C         143.5547  131.0335  154.0837 C.ar    1  UNL1        0.0053
     37 C         142.9986  132.4087  154.3059 C.ar    1  UNL1        0.0175
     38 C         145.1004  129.0837  154.8315 C.3     1  UNL1        0.4186
     39 F         145.6565  127.7084  154.6094 F       1  UNL1       -0.1659
     40 F         145.1410  129.3388  153.3539 F       1  UNL1       -0.1659
     41 F         145.0597  128.8285  156.3091 F       1  UNL1       -0.1659
@<TRIPOS>BOND
     1     7     8    2
     2     8     9   am
     3     9     1    1
     4     1     2    1
     5     2     3    1
     6     3     4    1
     7     4    26    1
     8    26    27    1
     9    27    28   ar
    10    28    29   ar
    11    29    30   ar
    12    30    32    1
    13    32    33   ar
    14    33    34   ar
    15    34    35   ar
    16    35    38    1
    17    38    39    1
    18    38    40    1
    19    38    41    1
    20    35    36   ar
    21    36    37   ar
    22    30    31   ar
    23     4     5    1
    24     5     6    1
    25     8    10   am
    26    10    13    1
    27    13    20    1
    28    20    21    1
    29    21    22   ar
    30    22    23   ar
    31    23    24   ar
    32    24    25   ar
    33    13    14    1
    34    14    15   ar
    35    15    16   ar
    36    16    17   ar
    37    17    18   ar
    38    18    19   ar
    39     6     1    1
    40    25    21   ar
    41    19    14   ar
    42    31    27   ar
    43    37    32   ar
    44     9    11    1
    45    10    12    1
@<TRIPOS>MOLECULE
*****
 41 45 0 0 0
SMALL
GASTEIGER

@<TRIPOS>ATOM
      1 C         138.6138  142.5461  158.0221 C.3     1  UNL1        0.0758
      2 C         138.4738  142.4723  159.5137 C.3     1  UNL1        0.0370
      3 C         139.6743  142.1867  160.3664 C.3     1  UNL1        0.0741
      4 N         141.0148  141.9748  159.7276 N.3     1  UNL1       -0.2688
      5 C         141.1548  142.0486  158.2360 C.3     1  UNL1        0.0741
      6 C         139.9543  142.3342  157.3833 C.3     1  UNL1        0.0370
      7 O         137.0526  140.2822  156.8230 O.2     1  UNL1       -0.2528
      8 C         136.6327  141.6998  156.5698 C.2     1  UNL1        0.3010
      9 N         137.4133  142.8317  157.1693 N.am    1  UNL1       -0.2905
     10 N         135.4322  141.9855  155.7170 N.am    1  UNL1       -0.2848
     11 H         137.1377  143.7621  157.0031 H       1  UNL1        0.1509
     12 H         135.1566  142.9159  155.5508 H       1  UNL1        0.1513
     13 C         134.6516  140.8536  155.1174 C.3     1  UNL1        0.1200
     14 C         133.3942  140.3755  155.7809 C.ar    1  UNL1       -0.0025
     15 C         132.1098  141.1245  155.5820 C.ar    1  UNL1       -0.0026
     16 C         130.8523  140.6465  156.2454 C.ar    1  UNL1       -0.0003
     17 C         130.8791  139.4194  157.1077 C.ar    1  UNL1       -0.0000
     18 C         132.1634  138.6704  157.3066 C.ar    1  UNL1       -0.0003
     19 C         133.4210  139.1484  156.6432 C.ar    1  UNL1       -0.0026
     20 C         135.1285  140.1997  153.8545 C.3     1  UNL1        0.1533
     21 N         136.3479  139.3265  153.8763 N.ar    1  UNL1       -0.2280
     22 C         137.6951  139.6794  153.3191 C.ar    1  UNL1        0.1973
     23 N         138.6140  138.5180  153.5575 N.ar    1  UNL1       -0.2007
     24 C         137.8347  137.4473  154.2620 C.ar    1  UNL1        0.2210
     25 N         136.4342  137.9470  154.4590 N.ar    1  UNL1       -0.1451
     26 C         142.2153  141.6891  160.5804 C.3     1  UNL1        0.1007
     27 C         142.3732  142.3726  161.9062 C.ar    1  UNL1        0.0129
     28 C         142.9568  143.7359  162.1314 C.ar    1  UNL1        0.0176
     29 C         142.9195  144.0186  163.6041 C.ar    1  UNL1        0.0799
     30 N         142.3128  142.8300  164.2891 N.ar    1  UNL1       -0.3038
     31 C         141.9752  141.8127  163.2397 C.ar    1  UNL1        0.0772
     32 C         142.0840  142.6843  165.7643 C.ar    1  UNL1        0.0640
     33 C         140.7100  142.8802  166.3331 C.ar    1  UNL1        0.0175
     34 C         140.4811  142.7345  167.8083 C.ar    1  UNL1        0.0053
     35 C         141.6263  142.3928  168.7148 C.ar    1  UNL1        0.0715
     36 C         143.0004  142.1969  168.1461 C.ar    1  UNL1        0.0053
     37 C         143.2292  142.3426  166.6708 C.ar    1  UNL1        0.0175
     38 C         141.3974  142.2471  170.1900 C.3     1  UNL1        0.4186
     39 F         141.1686  142.1014  171.6653 F       1  UNL1       -0.1659
     40 F         140.3753  143.3438  170.1398 F       1  UNL1       -0.1659
     41 F         142.4196  141.1504  170.2403 F       1  UNL1       -0.1659
@<TRIPOS>BOND
     1     7     8    2
     2     8     9   am
     3     9     1    1
     4     1     2    1
     5     2     3    1
     6     3     4    1
     7     4    26    1
     8    26    27    1
     9    27    28   ar
    10    28    29   ar
    11    29    30   ar
    12    30    32    1
    13    32    33   ar
    14    33    34   ar
    15    34    35   ar
    16    35    38    1
    17    38    39    1
    18    38    40    1
    19    38    41    1
    20    35    36   ar
    21    36    37   ar
    22    30    31   ar
    23     4     5    1
    24     5     6    1
    25     8    10   am
    26    10    13    1
    27    13    20    1
    28    20    21    1
    29    21    22   ar
    30    22    23   ar
    31    23    24   ar
    32    24    25   ar
    33    13    14    1
    34    14    15   ar
    35    15    16   ar
    36    16    17   ar
    37    17    18   ar
    38    18    19   ar
    39     6     1    1
    40    25    21   ar
    41    19    14   ar
    42    31    27   ar
    43    37    32   ar
    44     9    11    1
    45    10    12    1
@<TRIPOS>MOLECULE
*****
 41 45 0 0 0
SMALL
GASTEIGER

@<TRIPOS>ATOM
      1 C         141.9027  143.2586  157.6349 C.3     1  UNL1        0.0758
      2 C         140.5881  142.6006  157.3370 C.3     1  UNL1        0.0370
      3 C         140.5116  141.5078  156.3124 C.3     1  UNL1        0.0741
      4 N         141.7497  141.0731  155.5856 N.3     1  UNL1       -0.2688
      5 C         143.0643  141.7311  155.8835 C.3     1  UNL1        0.0741
      6 C         143.1408  142.8239  156.9081 C.3     1  UNL1        0.0370
      7 O         141.8411  142.5821  160.5570 O.2     1  UNL1       -0.2528
      8 C         141.9485  144.0132  160.1206 C.2     1  UNL1        0.3010
      9 N         141.9793  144.3514  158.6596 N.am    1  UNL1       -0.2905
     10 N         142.0251  145.1060  161.1453 N.am    1  UNL1       -0.2848
     11 H         142.0498  145.2907  158.3732 H       1  UNL1        0.1509
     12 H         142.0956  146.0453  160.8589 H       1  UNL1        0.1513
     13 C         141.9943  144.7677  162.6063 C.3     1  UNL1        0.1200
     14 C         140.6867  144.4776  163.2815 C.ar    1  UNL1       -0.0025
     15 C         139.3986  144.6781  162.5393 C.ar    1  UNL1       -0.0026
     16 C         138.0910  144.3880  163.2145 C.ar    1  UNL1       -0.0003
     17 C         138.0713  143.8974  164.6319 C.ar    1  UNL1       -0.0000
     18 C         139.3593  143.6969  165.3741 C.ar    1  UNL1       -0.0003
     19 C         140.6670  143.9870  164.6989 C.ar    1  UNL1       -0.0026
     20 C         143.2711  144.7195  163.3921 C.3     1  UNL1        0.1533
     21 N         144.1394  143.4977  163.3379 N.ar    1  UNL1       -0.2280
     22 C         144.8088  142.9453  162.1144 C.ar    1  UNL1        0.1973
     23 N         145.5739  141.7199  162.5180 N.ar    1  UNL1       -0.2007
     24 C         145.3775  141.5149  163.9909 C.ar    1  UNL1        0.2210
     25 N         144.4909  142.6136  164.4976 N.ar    1  UNL1       -0.1451
     26 C         141.6731  139.9802  154.5609 C.3     1  UNL1        0.1007
     27 C         141.3420  138.5792  154.9820 C.ar    1  UNL1        0.0129
     28 C         139.9640  138.0050  155.1284 C.ar    1  UNL1        0.0176
     29 C         140.1010  136.5772  155.5675 C.ar    1  UNL1        0.0799
     30 N         141.5638  136.2690  155.6924 N.ar    1  UNL1       -0.3038
     31 C         142.3307  137.5063  155.3305 C.ar    1  UNL1        0.0772
     32 C         142.1556  134.9544  156.1064 C.ar    1  UNL1        0.0640
     33 C         141.6558  133.6803  155.4926 C.ar    1  UNL1        0.0175
     34 C         142.2476  132.3657  155.9067 C.ar    1  UNL1        0.0053
     35 C         143.3393  132.3251  156.9345 C.ar    1  UNL1        0.0715
     36 C         143.8391  133.5992  157.5484 C.ar    1  UNL1        0.0053
     37 C         143.2473  134.9139  157.1343 C.ar    1  UNL1        0.0175
     38 C         143.9311  131.0105  157.3486 C.3     1  UNL1        0.4186
     39 F         144.5229  129.6958  157.7626 F       1  UNL1       -0.1659
     40 F         144.8927  131.7272  158.2495 F       1  UNL1       -0.1659
     41 F         142.9694  130.2938  156.4476 F       1  UNL1       -0.1659
@<TRIPOS>BOND
     1     7     8    2
     2     8     9   am
     3     9     1    1
     4     1     2    1
     5     2     3    1
     6     3     4    1
     7     4    26    1
     8    26    27    1
     9    27    28   ar
    10    28    29   ar
    11    29    30   ar
    12    30    32    1
    13    32    33   ar
    14    33    34   ar
    15    34    35   ar
    16    35    38    1
    17    38    39    1
    18    38    40    1
    19    38    41    1
    20    35    36   ar
    21    36    37   ar
    22    30    31   ar
    23     4     5    1
    24     5     6    1
    25     8    10   am
    26    10    13    1
    27    13    20    1
    28    20    21    1
    29    21    22   ar
    30    22    23   ar
    31    23    24   ar
    32    24    25   ar
    33    13    14    1
    34    14    15   ar
    35    15    16   ar
    36    16    17   ar
    37    17    18   ar
    38    18    19   ar
    39     6     1    1
    40    25    21   ar
    41    19    14   ar
    42    31    27   ar
    43    37    32   ar
    44     9    11    1
    45    10    12    1
@<TRIPOS>MOLECULE
*****
 41 45 0 0 0
SMALL
GASTEIGER

@<TRIPOS>ATOM
      1 C         140.3016  139.0448  161.5862 C.3     1  UNL1        0.0758
      2 C         141.4847  138.1250  161.6517 C.3     1  UNL1        0.0370
      3 C         142.2619  137.8132  160.4073 C.3     1  UNL1        0.0741
      4 N         141.8562  138.4212  159.0975 N.3     1  UNL1       -0.2688
      5 C         140.6732  139.3410  159.0320 C.3     1  UNL1        0.0741
      6 C         139.8959  139.6528  160.2764 C.3     1  UNL1        0.0370
      7 O         141.5219  140.7543  163.7284 O.2     1  UNL1       -0.2528
      8 C         140.1344  140.2113  163.9017 C.2     1  UNL1        0.3010
      9 N         139.5242  139.3566  162.8307 N.am    1  UNL1       -0.2905
     10 N         139.3570  140.5232  165.1461 N.am    1  UNL1       -0.2848
     11 H         138.6136  139.0003  162.9445 H       1  UNL1        0.1509
     12 H         138.4464  140.1668  165.2599 H       1  UNL1        0.1513
     13 C         139.9672  141.3779  166.2171 C.3     1  UNL1        0.1200
     14 C         140.5858  140.7389  167.4250 C.ar    1  UNL1       -0.0025
     15 C         141.9704  140.1672  167.3448 C.ar    1  UNL1       -0.0026
     16 C         142.5890  139.5282  168.5526 C.ar    1  UNL1       -0.0003
     17 C         141.8232  139.4609  169.8407 C.ar    1  UNL1       -0.0000
     18 C         140.4388  140.0325  169.9209 C.ar    1  UNL1       -0.0003
     19 C         139.8200  140.6715  168.7130 C.ar    1  UNL1       -0.0026
     20 C         139.9587  142.8716  166.0803 C.3     1  UNL1        0.1533
     21 N         139.3820  143.5089  164.8510 N.ar    1  UNL1       -0.2280
     22 C         137.9233  143.6990  164.5580 C.ar    1  UNL1        0.1973
     23 N         137.8026  144.3756  163.2247 N.ar    1  UNL1       -0.2007
     24 C         139.1868  144.6035  162.6936 C.ar    1  UNL1        0.2210
     25 N         140.1629  144.0679  163.6987 N.ar    1  UNL1       -0.1451
     26 C         142.6336  138.1093  157.8530 C.3     1  UNL1        0.1007
     27 C         142.5443  136.7455  157.2350 C.ar    1  UNL1        0.0129
     28 C         141.7572  136.3821  156.0109 C.ar    1  UNL1        0.0176
     29 C         141.9529  134.9177  155.7519 C.ar    1  UNL1        0.0799
     30 N         142.8610  134.3760  156.8158 N.ar    1  UNL1       -0.3038
     31 C         143.2265  135.5057  157.7324 C.ar    1  UNL1        0.0772
     32 C         143.3225  132.9543  156.9411 C.ar    1  UNL1        0.0640
     33 C         142.5628  131.8562  156.2580 C.ar    1  UNL1        0.0175
     34 C         143.0243  130.4345  156.3833 C.ar    1  UNL1        0.0053
     35 C         144.2456  130.1109  157.1918 C.ar    1  UNL1        0.0715
     36 C         145.0054  131.2091  157.8750 C.ar    1  UNL1        0.0053
     37 C         144.5439  132.6308  157.7496 C.ar    1  UNL1        0.0175
     38 C         144.7071  128.6892  157.3171 C.3     1  UNL1        0.4186
     39 F         145.1686  127.2675  157.4423 F       1  UNL1       -0.1659
     40 F         145.3880  129.0243  158.6110 F       1  UNL1       -0.1659
     41 F         144.0262  128.3541  156.0232 F       1  UNL1       -0.1659
@<TRIPOS>BOND
     1     7     8    2
     2     8     9   am
     3     9     1    1
     4     1     2    1
     5     2     3    1
     6     3     4    1
     7     4    26    1
     8    26    27    1
     9    27    28   ar
    10    28    29   ar
    11    29    30   ar
    12    30    32    1
    13    32    33   ar
    14    33    34   ar
    15    34    35   ar
    16    35    38    1
    17    38    39    1
    18    38    40    1
    19    38    41    1
    20    35    36   ar
    21    36    37   ar
    22    30    31   ar
    23     4     5    1
    24     5     6    1
    25     8    10   am
    26    10    13    1
    27    13    20    1
    28    20    21    1
    29    21    22   ar
    30    22    23   ar
    31    23    24   ar
    32    24    25   ar
    33    13    14    1
    34    14    15   ar
    35    15    16   ar
    36    16    17   ar
    37    17    18   ar
    38    18    19   ar
    39     6     1    1
    40    25    21   ar
    41    19    14   ar
    42    31    27   ar
    43    37    32   ar
    44     9    11    1
    45    10    12    1
@<TRIPOS>MOLECULE
*****
 41 45 0 0 0
SMALL
GASTEIGER

@<TRIPOS>ATOM
      1 C         140.8180  143.7409  157.6566 C.3     1  UNL1        0.0758
      2 C         141.3957  142.4433  157.1746 C.3     1  UNL1        0.0370
      3 C         140.6565  141.6250  156.1579 C.3     1  UNL1        0.0741
      4 N         139.3396  142.1042  155.6231 N.3     1  UNL1       -0.2688
      5 C         138.7618  143.4018  156.1051 C.3     1  UNL1        0.0741
      6 C         139.5010  144.2202  157.1218 C.3     1  UNL1        0.0370
      7 O         140.8194  142.9083  160.5388 O.2     1  UNL1       -0.2528
      8 C         141.5579  144.1431  160.1144 C.2     1  UNL1        0.3010
      9 N         141.5572  144.5594  158.6734 N.am    1  UNL1       -0.2905
     10 N         142.2971  144.9615  161.1312 N.am    1  UNL1       -0.2848
     11 H         142.0418  145.3698  158.3949 H       1  UNL1        0.1509
     12 H         142.7818  145.7720  160.8527 H       1  UNL1        0.1513
     13 C         142.2978  144.5452  162.5722 C.3     1  UNL1        0.1200
     14 C         143.1900  143.4298  163.0302 C.ar    1  UNL1       -0.0025
     15 C         144.5139  143.2056  162.3614 C.ar    1  UNL1       -0.0026
     16 C         145.4061  142.0902  162.8193 C.ar    1  UNL1       -0.0003
     17 C         144.9745  141.1990  163.9460 C.ar    1  UNL1       -0.0000
     18 C         143.6508  141.4232  164.6149 C.ar    1  UNL1       -0.0003
     19 C         142.7585  142.5386  164.1569 C.ar    1  UNL1       -0.0026
     20 C         141.4063  145.2443  163.5553 C.3     1  UNL1        0.1533
     21 N         139.9781  144.8131  163.7112 N.ar    1  UNL1       -0.2280
     22 C         139.3196  144.3898  164.9907 C.ar    1  UNL1        0.1973
     23 N         137.8922  144.0445  164.6853 N.ar    1  UNL1       -0.2007
     24 C         137.6685  144.2545  163.2169 C.ar    1  UNL1        0.2210
     25 N         138.9577  144.7295  162.6150 N.ar    1  UNL1       -0.1451
     26 C         138.6004  141.2857  154.6063 C.3     1  UNL1        0.1007
     27 C         137.1010  141.3090  154.5712 C.ar    1  UNL1        0.0129
     28 C         136.2537  141.9514  153.5132 C.ar    1  UNL1        0.0176
     29 C         134.8147  141.7333  153.8760 C.ar    1  UNL1        0.0799
     30 N         134.7726  140.9561  155.1583 N.ar    1  UNL1       -0.3038
     31 C         136.1856  140.6938  155.5879 C.ar    1  UNL1        0.0772
     32 C         133.5348  140.5180  155.8836 C.ar    1  UNL1        0.0640
     33 C         133.6259  139.4820  156.9644 C.ar    1  UNL1        0.0175
     34 C         132.3881  139.0440  157.6896 C.ar    1  UNL1        0.0053
     35 C         131.0593  139.6420  157.3341 C.ar    1  UNL1        0.0715
     36 C         130.9682  140.6780  156.2532 C.ar    1  UNL1        0.0053
     37 C         132.2059  141.1161  155.5280 C.ar    1  UNL1        0.0175
     38 C         129.8215  139.2039  158.0593 C.3     1  UNL1        0.4186
     39 F         128.5838  138.7658  158.7847 F       1  UNL1       -0.1659
     40 F         129.0230  140.2364  157.3202 F       1  UNL1       -0.1659
     41 F         130.6200  138.1714  158.7986 F       1  UNL1       -0.1659
@<TRIPOS>BOND
     1     7     8    2
     2     8     9   am
     3     9     1    1
     4     1     2    1
     5     2     3    1
     6     3     4    1
     7     4    26    1
     8    26    27    1
     9    27    28   ar
    10    28    29   ar
    11    29    30   ar
    12    30    32    1
    13    32    33   ar
    14    33    34   ar
    15    34    35   ar
    16    35    38    1
    17    38    39    1
    18    38    40    1
    19    38    41    1
    20    35    36   ar
    21    36    37   ar
    22    30    31   ar
    23     4     5    1
    24     5     6    1
    25     8    10   am
    26    10    13    1
    27    13    20    1
    28    20    21    1
    29    21    22   ar
    30    22    23   ar
    31    23    24   ar
    32    24    25   ar
    33    13    14    1
    34    14    15   ar
    35    15    16   ar
    36    16    17   ar
    37    17    18   ar
    38    18    19   ar
    39     6     1    1
    40    25    21   ar
    41    19    14   ar
    42    31    27   ar
    43    37    32   ar
    44     9    11    1
    45    10    12    1
@<TRIPOS>MOLECULE
*****
 41 45 0 0 0
SMALL
GASTEIGER

@<TRIPOS>ATOM
      1 C         143.9102  139.4985  161.4930 C.3     1  UNL1        0.0758
      2 C         143.9162  140.4637  160.3449 C.3     1  UNL1        0.0370
      3 C         143.4737  140.0134  158.9842 C.3     1  UNL1        0.0741
      4 N         143.0252  138.5978  158.7718 N.3     1  UNL1       -0.2688
      5 C         143.0192  137.6326  159.9199 C.3     1  UNL1        0.0741
      6 C         143.4618  138.0829  161.2805 C.3     1  UNL1        0.0370
      7 O         141.8996  140.5641  163.4479 O.2     1  UNL1       -0.2528
      8 C         143.3475  140.4816  163.8311 C.2     1  UNL1        0.3010
      9 N         144.3528  139.9487  162.8537 N.am    1  UNL1       -0.2905
     10 N         143.7900  140.9318  165.1919 N.am    1  UNL1       -0.2848
     11 H         145.3031  139.8946  163.1052 H       1  UNL1        0.1509
     12 H         144.7403  140.8777  165.4434 H       1  UNL1        0.1513
     13 C         142.7847  141.4646  166.1693 C.3     1  UNL1        0.1200
     14 C         142.7955  140.9876  167.5913 C.ar    1  UNL1       -0.0025
     15 C         142.5354  139.5428  167.8997 C.ar    1  UNL1       -0.0026
     16 C         142.5462  139.0657  169.3218 C.ar    1  UNL1       -0.0003
     17 C         142.8171  140.0334  170.4355 C.ar    1  UNL1       -0.0000
     18 C         143.0771  141.4781  170.1271 C.ar    1  UNL1       -0.0003
     19 C         143.0663  141.9552  168.7050 C.ar    1  UNL1       -0.0026
     20 C         141.7686  142.4745  165.7247 C.3     1  UNL1        0.1533
     21 N         142.1728  143.5926  164.8102 N.ar    1  UNL1       -0.2280
     22 C         141.2418  144.5086  164.0725 C.ar    1  UNL1        0.1973
     23 N         142.0726  145.4732  163.2792 N.ar    1  UNL1       -0.2007
     24 C         143.5172  145.1533  163.5265 C.ar    1  UNL1        0.2210
     25 N         143.5790  143.9911  164.4727 N.ar    1  UNL1       -0.1451
     26 C         142.5827  138.1476  157.4110 C.3     1  UNL1        0.1007
     27 C         143.0969  136.8577  156.8438 C.ar    1  UNL1        0.0129
     28 C         143.9035  136.7062  155.5882 C.ar    1  UNL1        0.0176
     29 C         144.2000  135.2478  155.4010 C.ar    1  UNL1        0.0799
     30 N         143.5767  134.4979  156.5409 N.ar    1  UNL1       -0.3038
     31 C         142.8950  135.4929  157.4326 C.ar    1  UNL1        0.0772
     32 C         143.6264  133.0137  156.7520 C.ar    1  UNL1        0.0640
     33 C         142.6212  132.1264  156.0795 C.ar    1  UNL1        0.0175
     34 C         142.6710  130.6422  156.2906 C.ar    1  UNL1        0.0053
     35 C         143.7258  130.0452  157.1741 C.ar    1  UNL1        0.0715
     36 C         144.7311  130.9325  157.8466 C.ar    1  UNL1        0.0053
     37 C         144.6814  132.4167  157.6356 C.ar    1  UNL1        0.0175
     38 C         143.7755  128.5610  157.3852 C.3     1  UNL1        0.4186
     39 F         143.8253  127.0767  157.5963 F       1  UNL1       -0.1659
     40 F         142.3060  128.4710  157.0982 F       1  UNL1       -0.1659
     41 F         145.2452  128.6510  157.6722 F       1  UNL1       -0.1659
@<TRIPOS>BOND
     1     7     8    2
     2     8     9   am
     3     9     1    1
     4     1     2    1
     5     2     3    1
     6     3     4    1
     7     4    26    1
     8    26    27    1
     9    27    28   ar
    10    28    29   ar
    11    29    30   ar
    12    30    32    1
    13    32    33   ar
    14    33    34   ar
    15    34    35   ar
    16    35    38    1
    17    38    39    1
    18    38    40    1
    19    38    41    1
    20    35    36   ar
    21    36    37   ar
    22    30    31   ar
    23     4     5    1
    24     5     6    1
    25     8    10   am
    26    10    13    1
    27    13    20    1
    28    20    21    1
    29    21    22   ar
    30    22    23   ar
    31    23    24   ar
    32    24    25   ar
    33    13    14    1
    34    14    15   ar
    35    15    16   ar
    36    16    17   ar
    37    17    18   ar
    38    18    19   ar
    39     6     1    1
    40    25    21   ar
    41    19    14   ar
    42    31    27   ar
    43    37    32   ar
    44     9    11    1
    45    10    12    1
