@<TRIPOS>MOLECULE
*****
 40 43 0 0 0
SMALL
GASTEIGER

@<TRIPOS>ATOM
      1 C         138.2685  140.2473  162.4425 C.ar    1  UNL1        0.2220
      2 N         137.4970  140.2166  161.1564 N.ar    1  UNL1       -0.2110
      3 C         138.1865  139.8461  159.8768 C.ar    1  UNL1        0.1160
      4 C         139.6475  139.5063  159.8833 C.ar    1  UNL1        0.1085
      5 CL        140.3370  139.1357  158.6038 Cl      1  UNL1       -0.0777
      6 C         140.4190  139.5370  161.1694 C.ar    1  UNL1        0.1472
      7 N         139.7295  139.9075  162.4489 N.ar    1  UNL1       -0.1976
      8 N         137.5790  140.6179  163.7220 N.pl3   1  UNL1       -0.2776
      9 H         136.6260  140.8648  163.7140 H       1  UNL1        0.1552
     10 C         139.2964  141.7259  165.3260 C.ar    1  UNL1        0.2413
     11 N         140.0589  141.7202  166.6177 N.ar    1  UNL1       -0.1957
     12 C         139.8665  140.6006  167.5972 C.ar    1  UNL1        0.1420
     13 N         138.9116  139.4868  167.2850 N.ar    1  UNL1       -0.2277
     14 C         138.1491  139.4925  165.9933 C.ar    1  UNL1        0.1196
     15 C         138.3415  140.6121  165.0138 C.ar    1  UNL1        0.1238
     16 C         140.6290  140.5949  168.8890 C.3     1  UNL1        0.0615
     17 C         140.1633  141.4384  170.0385 C.3     1  UNL1        0.0247
     18 C         140.9257  141.4327  171.3302 C.3     1  UNL1        0.0690
     19 N         142.1540  140.5834  171.4725 N.3     1  UNL1       -0.2974
     20 C         142.6197  139.7398  170.3229 C.3     1  UNL1        0.0690
     21 C         141.8572  139.7456  169.0311 C.3     1  UNL1        0.0247
     22 H         141.9848  139.9494  172.2534 H       1  UNL1        0.1232
     23 O         139.4889  142.8455  164.3464 O.3     1  UNL1       -0.4631
     24 C         138.5121  144.9366  165.5394 C.3     1  UNL1        0.0473
     25 C         138.5534  144.0180  164.3543 C.3     1  UNL1        0.1678
     26 C         137.6592  144.2720  163.1770 C.3     1  UNL1        0.0473
     27 N         141.8800  139.1972  161.1759 N.pl3   1  UNL1       -0.2961
     28 H         142.1694  138.2659  161.0410 H       1  UNL1        0.1537
     29 C         142.9001  140.2763  161.3878 C.ar    1  UNL1        0.0667
     30 C         143.2796  141.1826  160.2544 C.ar    1  UNL1        0.0159
     31 C         144.2997  142.2617  160.4664 C.ar    1  UNL1        0.0014
     32 C         144.9402  142.4346  161.8117 C.ar    1  UNL1        0.0014
     33 C         144.5607  141.5282  162.9451 C.ar    1  UNL1        0.0196
     34 C         143.5406  140.4491  162.7331 C.ar    1  UNL1        0.1189
     35 S         143.1610  139.5427  163.8664 S.O2    1  UNL1        0.0082
     36 O         142.5819  140.7115  164.6072 O.2     1  UNL1       -0.1686
     37 O         143.7401  138.3740  163.1257 O.2     1  UNL1       -0.1686
     38 C         142.7814  138.6364  164.9998 C.3     1  UNL1        0.1340
     39 C         143.7619  138.3622  166.1015 C.3     1  UNL1        0.0257
     40 C         141.4215  138.0043  165.0315 C.3     1  UNL1        0.0257
@<TRIPOS>BOND
     1    24    25    1
     2    25    26    1
     3    25    23    1
     4    23    10    1
     5    10    11   ar
     6    11    12   ar
     7    12    16    1
     8    16    17    1
     9    17    18    1
    10    18    19    1
    11    19    20    1
    12    20    21    1
    13    12    13   ar
    14    13    14   ar
    15    14    15   ar
    16    15     8    1
    17     8     1    1
    18     1     2   ar
    19     2     3   ar
    20     3     4   ar
    21     4     5    1
    22     4     6   ar
    23     6    27    1
    24    27    29    1
    25    29    30   ar
    26    30    31   ar
    27    31    32   ar
    28    32    33   ar
    29    33    34   ar
    30    34    35    1
    31    35    36    2
    32    35    37    2
    33    35    38    1
    34    38    39    1
    35    38    40    1
    36     6     7   ar
    37    15    10   ar
    38     7     1   ar
    39    21    16    1
    40    34    29   ar
    41    19    22    1
    42     8     9    1
    43    27    28    1
@<TRIPOS>MOLECULE
*****
 40 43 0 0 0
SMALL
GASTEIGER

@<TRIPOS>ATOM
      1 C         143.5378  139.4229  161.9049 C.ar    1  UNL1        0.2220
      2 N         144.0189  139.1229  160.5161 N.ar    1  UNL1       -0.2110
      3 C         143.0345  138.7646  159.4424 C.ar    1  UNL1        0.1160
      4 C         141.5691  138.7064  159.7575 C.ar    1  UNL1        0.1085
      5 CL        140.5848  138.3482  158.6839 Cl      1  UNL1       -0.0777
      6 C         141.0881  139.0064  161.1463 C.ar    1  UNL1        0.1472
      7 N         142.0724  139.3647  162.2199 N.ar    1  UNL1       -0.1976
      8 N         144.5221  139.7812  162.9785 N.pl3   1  UNL1       -0.2776
      9 H         145.4829  139.6172  162.8401 H       1  UNL1        0.1552
     10 C         144.2449  141.8528  164.5218 C.ar    1  UNL1        0.2413
     11 N         143.7653  142.4608  165.8064 N.ar    1  UNL1       -0.1957
     12 C         143.0832  141.6052  166.8324 C.ar    1  UNL1        0.1420
     13 N         142.8808  140.1416  166.5738 N.ar    1  UNL1       -0.2277
     14 C         143.3604  139.5336  165.2892 C.ar    1  UNL1        0.1196
     15 C         144.0425  140.3892  164.2632 C.ar    1  UNL1        0.1238
     16 C         142.6035  142.2133  168.1171 C.3     1  UNL1        0.0615
     17 C         141.1726  142.6413  168.2559 C.3     1  UNL1        0.0247
     18 C         140.6930  143.2493  169.5405 C.3     1  UNL1        0.0690
     19 N         141.6442  143.4294  170.6863 N.3     1  UNL1       -0.2974
     20 C         143.0752  143.0014  170.5474 C.3     1  UNL1        0.0690
     21 C         143.5548  142.3933  169.2628 C.3     1  UNL1        0.0247
     22 H         141.2570  142.9109  171.4747 H       1  UNL1        0.1232
     23 O         144.9270  142.7084  163.4957 O.3     1  UNL1       -0.4631
     24 C         143.7351  144.9940  163.1708 C.3     1  UNL1        0.0473
     25 C         144.1214  143.6438  162.6437 C.3     1  UNL1        0.1678
     26 C         143.7019  143.2290  161.2645 C.3     1  UNL1        0.0473
     27 N         139.6227  138.9482  161.4614 N.pl3   1  UNL1       -0.2961
     28 H         138.9624  138.9346  160.7313 H       1  UNL1        0.1537
     29 C         139.1634  138.9108  162.8888 C.ar    1  UNL1        0.0667
     30 C         139.2658  137.6384  163.6765 C.ar    1  UNL1        0.0159
     31 C         138.8065  137.6010  165.1040 C.ar    1  UNL1        0.0014
     32 C         138.2448  138.8360  165.7437 C.ar    1  UNL1        0.0014
     33 C         138.1424  140.1084  164.9560 C.ar    1  UNL1        0.0196
     34 C         138.6017  140.1458  163.5285 C.ar    1  UNL1        0.1189
     35 S         138.4993  141.4182  162.7408 S.O2    1  UNL1        0.0082
     36 O         139.8866  141.7949  163.1689 O.2     1  UNL1       -0.1686
     37 O         137.1119  141.0414  162.3126 O.2     1  UNL1       -0.1686
     38 C         138.3968  142.6906  161.9530 C.3     1  UNL1        0.1340
     39 C         138.1612  143.9929  162.6591 C.3     1  UNL1        0.0257
     40 C         138.5301  142.6607  160.4593 C.3     1  UNL1        0.0257
@<TRIPOS>BOND
     1    24    25    1
     2    25    26    1
     3    25    23    1
     4    23    10    1
     5    10    11   ar
     6    11    12   ar
     7    12    16    1
     8    16    17    1
     9    17    18    1
    10    18    19    1
    11    19    20    1
    12    20    21    1
    13    12    13   ar
    14    13    14   ar
    15    14    15   ar
    16    15     8    1
    17     8     1    1
    18     1     2   ar
    19     2     3   ar
    20     3     4   ar
    21     4     5    1
    22     4     6   ar
    23     6    27    1
    24    27    29    1
    25    29    30   ar
    26    30    31   ar
    27    31    32   ar
    28    32    33   ar
    29    33    34   ar
    30    34    35    1
    31    35    36    2
    32    35    37    2
    33    35    38    1
    34    38    39    1
    35    38    40    1
    36     6     7   ar
    37    15    10   ar
    38     7     1   ar
    39    21    16    1
    40    34    29   ar
    41    19    22    1
    42     8     9    1
    43    27    28    1
@<TRIPOS>MOLECULE
*****
 40 43 0 0 0
SMALL
GASTEIGER

@<TRIPOS>ATOM
      1 C         140.4373  138.6278  162.6085 C.ar    1  UNL1        0.2220
      2 N         139.8046  137.7697  161.5532 N.ar    1  UNL1       -0.2110
      3 C         139.0461  138.4047  160.4256 C.ar    1  UNL1        0.1160
      4 C         138.9203  139.8977  160.3532 C.ar    1  UNL1        0.1085
      5 CL        138.1619  140.5327  159.2256 Cl      1  UNL1       -0.0777
      6 C         139.5530  140.7557  161.4085 C.ar    1  UNL1        0.1472
      7 N         140.3115  140.1207  162.5361 N.ar    1  UNL1       -0.1976
      8 N         141.1957  137.9928  163.7361 N.pl3   1  UNL1       -0.2776
      9 H         141.5911  137.0985  163.6214 H       1  UNL1        0.1552
     10 C         142.7167  139.1181  165.5167 C.ar    1  UNL1        0.2413
     11 N         142.8726  139.8456  166.8191 N.ar    1  UNL1       -0.1957
     12 C         141.6636  140.1755  167.6434 C.ar    1  UNL1        0.1420
     13 N         140.2986  139.7778  167.1653 N.ar    1  UNL1       -0.2277
     14 C         140.1427  139.0503  165.8629 C.ar    1  UNL1        0.1196
     15 C         141.3517  138.7204  165.0386 C.ar    1  UNL1        0.1238
     16 C         141.8196  140.9031  168.9459 C.3     1  UNL1        0.0615
     17 C         142.7054  142.1108  169.0289 C.3     1  UNL1        0.0247
     18 C         142.8614  142.8384  170.3312 C.3     1  UNL1        0.0690
     19 N         142.1316  142.3583  171.5507 N.3     1  UNL1       -0.2974
     20 C         141.2458  141.1506  171.4677 C.3     1  UNL1        0.0690
     21 C         141.0898  140.4230  170.1652 C.3     1  UNL1        0.0247
     22 H         141.5464  143.1315  171.8671 H       1  UNL1        0.1232
     23 O         143.9257  138.7882  164.6924 O.3     1  UNL1       -0.4631
     24 C         144.1025  139.5420  162.2124 C.3     1  UNL1        0.0473
     25 C         144.4191  139.7604  163.6623 C.3     1  UNL1        0.1678
     26 C         145.2292  140.9512  164.0819 C.3     1  UNL1        0.0473
     27 N         139.4272  142.2487  161.3362 N.pl3   1  UNL1       -0.2961
     28 H         139.4946  142.7068  160.4674 H       1  UNL1        0.1537
     29 C         139.1988  143.0436  162.5875 C.ar    1  UNL1        0.0667
     30 C         137.8263  143.1193  163.1880 C.ar    1  UNL1        0.0159
     31 C         137.5979  143.9142  164.4393 C.ar    1  UNL1        0.0014
     32 C         138.7421  144.6335  165.0903 C.ar    1  UNL1        0.0014
     33 C         140.1146  144.5578  164.4898 C.ar    1  UNL1        0.0196
     34 C         140.3429  143.7629  163.2384 C.ar    1  UNL1        0.1189
     35 S         141.7154  143.6872  162.6379 S.O2    1  UNL1        0.0082
     36 O         141.3274  144.7192  161.6209 O.2     1  UNL1       -0.1686
     37 O         142.1035  142.6552  163.6550 O.2     1  UNL1       -0.1686
     38 C         143.0879  143.6115  162.0375 C.3     1  UNL1        0.1340
     39 C         144.2392  144.3001  162.7087 C.3     1  UNL1        0.0257
     40 C         143.3091  142.8473  160.7659 C.3     1  UNL1        0.0257
@<TRIPOS>BOND
     1    24    25    1
     2    25    26    1
     3    25    23    1
     4    23    10    1
     5    10    11   ar
     6    11    12   ar
     7    12    16    1
     8    16    17    1
     9    17    18    1
    10    18    19    1
    11    19    20    1
    12    20    21    1
    13    12    13   ar
    14    13    14   ar
    15    14    15   ar
    16    15     8    1
    17     8     1    1
    18     1     2   ar
    19     2     3   ar
    20     3     4   ar
    21     4     5    1
    22     4     6   ar
    23     6    27    1
    24    27    29    1
    25    29    30   ar
    26    30    31   ar
    27    31    32   ar
    28    32    33   ar
    29    33    34   ar
    30    34    35    1
    31    35    36    2
    32    35    37    2
    33    35    38    1
    34    38    39    1
    35    38    40    1
    36     6     7   ar
    37    15    10   ar
    38     7     1   ar
    39    21    16    1
    40    34    29   ar
    41    19    22    1
    42     8     9    1
    43    27    28    1
@<TRIPOS>MOLECULE
*****
 40 43 0 0 0
SMALL
GASTEIGER

@<TRIPOS>ATOM
      1 C         140.0337  138.7393  162.4108 C.ar    1  UNL1        0.2220
      2 N         139.7261  138.0635  161.1074 N.ar    1  UNL1       -0.2110
      3 C         139.6773  138.8648  159.8404 C.ar    1  UNL1        0.1160
      4 C         139.9361  140.3419  159.8766 C.ar    1  UNL1        0.1085
      5 CL        139.8872  141.1432  158.6096 Cl      1  UNL1       -0.0777
      6 C         140.2437  141.0176  161.1800 C.ar    1  UNL1        0.1472
      7 N         140.2925  140.2163  162.4471 N.ar    1  UNL1       -0.1976
      8 N         140.0826  137.9380  163.6779 N.pl3   1  UNL1       -0.2776
      9 H         140.0548  136.9546  163.6398 H       1  UNL1        0.1552
     10 C         141.5117  138.8549  165.6444 C.ar    1  UNL1        0.2413
     11 N         141.6027  139.5519  166.9695 N.ar    1  UNL1       -0.1957
     12 C         140.3558  140.0290  167.6532 C.ar    1  UNL1        0.1420
     13 N         139.0178  139.8091  167.0119 N.ar    1  UNL1       -0.2277
     14 C         138.9267  139.1121  165.6868 C.ar    1  UNL1        0.1196
     15 C         140.1737  138.6350  165.0031 C.ar    1  UNL1        0.1238
     16 C         140.4469  140.7260  168.9784 C.3     1  UNL1        0.0615
     17 C         140.8231  139.9534  170.2078 C.3     1  UNL1        0.0247
     18 C         140.9142  140.6504  171.5329 C.3     1  UNL1        0.0690
     19 N         140.6291  142.1200  171.6286 N.3     1  UNL1       -0.2974
     20 C         140.2529  142.8926  170.3991 C.3     1  UNL1        0.0690
     21 C         140.1618  142.1955  169.0740 C.3     1  UNL1        0.0247
     22 H         141.4687  142.5588  172.0067 H       1  UNL1        0.1232
     23 O         142.7586  138.3778  164.9607 O.3     1  UNL1       -0.4631
     24 C         143.7548  138.8971  162.6180 C.3     1  UNL1        0.0473
     25 C         143.5091  139.2966  164.0428 C.3     1  UNL1        0.1678
     26 C         144.0140  140.6150  164.5498 C.3     1  UNL1        0.0473
     27 N         140.5025  142.4947  161.2163 N.pl3   1  UNL1       -0.2961
     28 H         139.8796  143.1147  160.7725 H       1  UNL1        0.1537
     29 C         141.7103  143.0273  161.9287 C.ar    1  UNL1        0.0667
     30 C         143.0560  142.9710  161.2685 C.ar    1  UNL1        0.0159
     31 C         144.2638  143.5035  161.9809 C.ar    1  UNL1        0.0014
     32 C         144.1259  144.0924  163.3536 C.ar    1  UNL1        0.0014
     33 C         142.7802  144.1487  164.0139 C.ar    1  UNL1        0.0196
     34 C         141.5723  143.6161  163.3013 C.ar    1  UNL1        0.1189
     35 S         140.2266  143.6724  163.9615 S.O2    1  UNL1        0.0082
     36 O         139.8249  144.7917  163.0473 O.2     1  UNL1       -0.1686
     37 O         140.6283  142.5532  164.8758 O.2     1  UNL1       -0.1686
     38 C         138.8809  143.7287  164.6218 C.3     1  UNL1        0.1340
     39 C         138.5179  144.8999  165.4860 C.3     1  UNL1        0.0257
     40 C         137.8982  142.6140  164.4178 C.3     1  UNL1        0.0257
@<TRIPOS>BOND
     1    24    25    1
     2    25    26    1
     3    25    23    1
     4    23    10    1
     5    10    11   ar
     6    11    12   ar
     7    12    16    1
     8    16    17    1
     9    17    18    1
    10    18    19    1
    11    19    20    1
    12    20    21    1
    13    12    13   ar
    14    13    14   ar
    15    14    15   ar
    16    15     8    1
    17     8     1    1
    18     1     2   ar
    19     2     3   ar
    20     3     4   ar
    21     4     5    1
    22     4     6   ar
    23     6    27    1
    24    27    29    1
    25    29    30   ar
    26    30    31   ar
    27    31    32   ar
    28    32    33   ar
    29    33    34   ar
    30    34    35    1
    31    35    36    2
    32    35    37    2
    33    35    38    1
    34    38    39    1
    35    38    40    1
    36     6     7   ar
    37    15    10   ar
    38     7     1   ar
    39    21    16    1
    40    34    29   ar
    41    19    22    1
    42     8     9    1
    43    27    28    1
@<TRIPOS>MOLECULE
*****
 40 43 0 0 0
SMALL
GASTEIGER

@<TRIPOS>ATOM
      1 C         143.3082  140.3350  162.1581 C.ar    1  UNL1        0.2220
      2 N         143.9083  140.3074  160.7836 N.ar    1  UNL1       -0.2110
      3 C         143.0395  140.5309  159.5814 C.ar    1  UNL1        0.1160
      4 C         141.5707  140.7820  159.7538 C.ar    1  UNL1        0.1085
      5 CL        140.7019  141.0056  158.5516 Cl      1  UNL1       -0.0777
      6 C         140.9707  140.8096  161.1282 C.ar    1  UNL1        0.1472
      7 N         141.8395  140.5861  162.3304 N.ar    1  UNL1       -0.1976
      8 N         144.1770  140.1114  163.3603 N.pl3   1  UNL1       -0.2776
      9 H         145.1339  139.9104  163.2457 H       1  UNL1        0.1552
     10 C         143.5975  141.4972  165.4802 C.ar    1  UNL1        0.2413
     11 N         143.0082  141.5799  166.8571 N.ar    1  UNL1       -0.1957
     12 C         142.4093  140.3596  167.4912 C.ar    1  UNL1        0.1420
     13 N         142.3996  139.0565  166.7483 N.ar    1  UNL1       -0.2277
     14 C         142.9888  138.9738  165.3714 C.ar    1  UNL1        0.1196
     15 C         143.5878  140.1942  164.7373 C.ar    1  UNL1        0.1238
     16 C         141.8201  140.4423  168.8681 C.3     1  UNL1        0.0615
     17 C         142.6656  140.9002  170.0194 C.3     1  UNL1        0.0247
     18 C         142.0764  140.9830  171.3964 C.3     1  UNL1        0.0690
     19 N         140.6417  140.6078  171.6221 N.3     1  UNL1       -0.2974
     20 C         139.7962  140.1499  170.4708 C.3     1  UNL1        0.0690
     21 C         140.3854  140.0671  169.0938 C.3     1  UNL1        0.0247
     22 H         140.1816  141.4278  172.0174 H       1  UNL1        0.1232
     23 O         144.1964  142.7176  164.8462 O.3     1  UNL1       -0.4631
     24 C         143.9411  144.4898  162.9636 C.3     1  UNL1        0.0473
     25 C         143.3333  143.6470  164.0455 C.3     1  UNL1        0.1678
     26 C         141.8624  143.7338  164.3266 C.3     1  UNL1        0.0473
     27 N         139.5019  141.0607  161.3006 N.pl3   1  UNL1       -0.2961
     28 H         138.8485  140.5280  160.7921 H       1  UNL1        0.1537
     29 C         139.0288  142.1233  162.2476 C.ar    1  UNL1        0.0667
     30 C         138.9721  143.5543  161.8015 C.ar    1  UNL1        0.0159
     31 C         138.4989  144.6169  162.7485 C.ar    1  UNL1        0.0014
     32 C         138.0824  144.2486  164.1417 C.ar    1  UNL1        0.0014
     33 C         138.1391  142.8176  164.5878 C.ar    1  UNL1        0.0196
     34 C         138.6123  141.7549  163.6407 C.ar    1  UNL1        0.1189
     35 S         138.6690  140.3239  164.0868 S.O2    1  UNL1        0.0082
     36 O         139.7179  140.6807  165.0979 O.2     1  UNL1       -0.1686
     37 O         137.6200  139.9671  163.0756 O.2     1  UNL1       -0.1686
     38 C         138.7257  138.8929  164.5329 C.3     1  UNL1        0.1340
     39 C         139.0396  137.8105  163.5428 C.3     1  UNL1        0.0257
     40 C         138.4685  138.5442  165.9689 C.3     1  UNL1        0.0257
@<TRIPOS>BOND
     1    24    25    1
     2    25    26    1
     3    25    23    1
     4    23    10    1
     5    10    11   ar
     6    11    12   ar
     7    12    16    1
     8    16    17    1
     9    17    18    1
    10    18    19    1
    11    19    20    1
    12    20    21    1
    13    12    13   ar
    14    13    14   ar
    15    14    15   ar
    16    15     8    1
    17     8     1    1
    18     1     2   ar
    19     2     3   ar
    20     3     4   ar
    21     4     5    1
    22     4     6   ar
    23     6    27    1
    24    27    29    1
    25    29    30   ar
    26    30    31   ar
    27    31    32   ar
    28    32    33   ar
    29    33    34   ar
    30    34    35    1
    31    35    36    2
    32    35    37    2
    33    35    38    1
    34    38    39    1
    35    38    40    1
    36     6     7   ar
    37    15    10   ar
    38     7     1   ar
    39    21    16    1
    40    34    29   ar
    41    19    22    1
    42     8     9    1
    43    27    28    1
@<TRIPOS>MOLECULE
*****
 40 43 0 0 0
SMALL
GASTEIGER

@<TRIPOS>ATOM
      1 C         138.2205  140.0420  162.5995 C.ar    1  UNL1        0.2220
      2 N         137.5106  140.1598  161.2832 N.ar    1  UNL1       -0.2110
      3 C         138.1524  139.6304  160.0351 C.ar    1  UNL1        0.1160
      4 C         139.5039  138.9832  160.1031 C.ar    1  UNL1        0.1085
      5 CL        140.1456  138.4538  158.8550 Cl      1  UNL1       -0.0777
      6 C         140.2136  138.8654  161.4193 C.ar    1  UNL1        0.1472
      7 N         139.5719  139.3948  162.6675 N.ar    1  UNL1       -0.1976
      8 N         137.5787  140.5714  163.8476 N.pl3   1  UNL1       -0.2776
      9 H         136.6534  140.9065  163.8213 H       1  UNL1        0.1552
     10 C         139.3109  141.7041  165.4182 C.ar    1  UNL1        0.2413
     11 N         140.0790  141.7227  166.7065 N.ar    1  UNL1       -0.1957
     12 C         139.8830  140.6275  167.7125 C.ar    1  UNL1        0.1420
     13 N         138.9190  139.5135  167.4302 N.ar    1  UNL1       -0.2277
     14 C         138.1509  139.4948  166.1419 C.ar    1  UNL1        0.1196
     15 C         138.3469  140.5901  165.1359 C.ar    1  UNL1        0.1238
     16 C         140.6512  140.6462  169.0008 C.3     1  UNL1        0.0615
     17 C         140.1941  141.5163  170.1339 C.3     1  UNL1        0.0247
     18 C         140.9622  141.5351  171.4221 C.3     1  UNL1        0.0690
     19 N         142.1874  140.6837  171.5774 N.3     1  UNL1       -0.2974
     20 C         142.6445  139.8135  170.4442 C.3     1  UNL1        0.0690
     21 C         141.8763  139.7948  169.1559 C.3     1  UNL1        0.0247
     22 H         142.0189  140.0674  172.3724 H       1  UNL1        0.1232
     23 O         139.5068  142.7993  164.4122 O.3     1  UNL1       -0.4631
     24 C         138.5625  144.9320  165.5567 C.3     1  UNL1        0.0473
     25 C         138.5809  143.9793  164.3983 C.3     1  UNL1        0.1678
     26 C         137.6732  144.2066  163.2258 C.3     1  UNL1        0.0473
     27 N         141.5652  138.2182  161.4874 N.pl3   1  UNL1       -0.2961
     28 H         141.7758  137.4555  160.9015 H       1  UNL1        0.1537
     29 C         142.5957  138.7330  162.4480 C.ar    1  UNL1        0.0667
     30 C         142.5960  138.2608  163.8718 C.ar    1  UNL1        0.0159
     31 C         143.6266  138.7756  164.8325 C.ar    1  UNL1        0.0014
     32 C         144.6569  139.7626  164.3694 C.ar    1  UNL1        0.0014
     33 C         144.6566  140.2347  162.9457 C.ar    1  UNL1        0.0196
     34 C         143.6259  139.7199  161.9850 C.ar    1  UNL1        0.1189
     35 S         143.6256  140.1921  160.5612 S.O2    1  UNL1        0.0082
     36 O         144.3981  138.9717  160.1563 O.2     1  UNL1       -0.1686
     37 O         142.8532  141.4125  160.9661 O.2     1  UNL1       -0.1686
     38 C         143.6253  140.6642  159.1375 C.3     1  UNL1        0.1340
     39 C         143.3340  139.6986  158.0271 C.3     1  UNL1        0.0257
     40 C         143.9163  142.1019  158.8240 C.3     1  UNL1        0.0257
@<TRIPOS>BOND
     1    24    25    1
     2    25    26    1
     3    25    23    1
     4    23    10    1
     5    10    11   ar
     6    11    12   ar
     7    12    16    1
     8    16    17    1
     9    17    18    1
    10    18    19    1
    11    19    20    1
    12    20    21    1
    13    12    13   ar
    14    13    14   ar
    15    14    15   ar
    16    15     8    1
    17     8     1    1
    18     1     2   ar
    19     2     3   ar
    20     3     4   ar
    21     4     5    1
    22     4     6   ar
    23     6    27    1
    24    27    29    1
    25    29    30   ar
    26    30    31   ar
    27    31    32   ar
    28    32    33   ar
    29    33    34   ar
    30    34    35    1
    31    35    36    2
    32    35    37    2
    33    35    38    1
    34    38    39    1
    35    38    40    1
    36     6     7   ar
    37    15    10   ar
    38     7     1   ar
    39    21    16    1
    40    34    29   ar
    41    19    22    1
    42     8     9    1
    43    27    28    1
@<TRIPOS>MOLECULE
*****
 40 43 0 0 0
SMALL
GASTEIGER

@<TRIPOS>ATOM
      1 C         141.5630  138.4534  162.5237 C.ar    1  UNL1        0.2220
      2 N         141.5439  137.6970  161.2285 N.ar    1  UNL1       -0.2110
      3 C         141.6744  138.4331  159.9281 C.ar    1  UNL1        0.1160
      4 C         141.8240  139.9257  159.9229 C.ar    1  UNL1        0.1085
      5 CL        141.9545  140.6619  158.6225 Cl      1  UNL1       -0.0777
      6 C         141.8430  140.6820  161.2181 C.ar    1  UNL1        0.1472
      7 N         141.7125  139.9459  162.5185 N.ar    1  UNL1       -0.1976
      8 N         141.4324  137.7172  163.8241 N.pl3   1  UNL1       -0.2776
      9 H         141.2839  136.7440  163.8260 H       1  UNL1        0.1552
     10 C         140.2966  139.0581  165.7378 C.ar    1  UNL1        0.2413
     11 N         140.3925  139.8047  167.0351 N.ar    1  UNL1       -0.1957
     12 C         141.7202  139.9573  167.7163 C.ar    1  UNL1        0.1420
     13 N         142.9519  139.3632  167.1001 N.ar    1  UNL1       -0.2277
     14 C         142.8560  138.6165  165.8027 C.ar    1  UNL1        0.1196
     15 C         141.5283  138.4639  165.1215 C.ar    1  UNL1        0.1238
     16 C         141.8161  140.7040  169.0138 C.3     1  UNL1        0.0615
     17 C         141.0105  140.2571  170.1976 C.3     1  UNL1        0.0247
     18 C         141.1064  141.0037  171.4950 C.3     1  UNL1        0.0690
     19 N         142.0078  142.1973  171.6086 N.3     1  UNL1       -0.2974
     20 C         142.8133  142.6442  170.4248 C.3     1  UNL1        0.0690
     21 C         142.7174  141.8975  169.1274 C.3     1  UNL1        0.0247
     22 H         142.6710  141.9953  172.3567 H       1  UNL1        0.1232
     23 O         138.9689  138.9055  165.0566 O.3     1  UNL1       -0.4631
     24 C         138.2295  141.3790  164.7648 C.3     1  UNL1        0.0473
     25 C         138.4393  140.0094  164.1901 C.3     1  UNL1        0.1678
     26 C         138.1193  139.7438  162.7488 C.3     1  UNL1        0.0473
     27 N         141.9925  142.1746  161.2129 N.pl3   1  UNL1       -0.2961
     28 H         142.7020  142.5964  160.6762 H       1  UNL1        0.1537
     29 C         141.0612  143.0245  162.0254 C.ar    1  UNL1        0.0667
     30 C         139.6758  143.3082  161.5253 C.ar    1  UNL1        0.0159
     31 C         138.7444  144.1580  162.3378 C.ar    1  UNL1        0.0014
     32 C         139.1984  144.7243  163.6506 C.ar    1  UNL1        0.0014
     33 C         140.5839  144.4406  164.1508 C.ar    1  UNL1        0.0196
     34 C         141.5152  143.5907  163.3381 C.ar    1  UNL1        0.1189
     35 S         142.9006  143.3070  163.8383 S.O2    1  UNL1        0.0082
     36 O         142.3399  142.3513  164.8494 O.2     1  UNL1       -0.1686
     37 O         143.4614  144.2626  162.8272 O.2     1  UNL1       -0.1686
     38 C         144.2860  143.0233  164.3385 C.3     1  UNL1        0.1340
     39 C         144.7590  143.6343  165.6242 C.3     1  UNL1        0.0257
     40 C         145.1985  142.1287  163.5530 C.3     1  UNL1        0.0257
@<TRIPOS>BOND
     1    24    25    1
     2    25    26    1
     3    25    23    1
     4    23    10    1
     5    10    11   ar
     6    11    12   ar
     7    12    16    1
     8    16    17    1
     9    17    18    1
    10    18    19    1
    11    19    20    1
    12    20    21    1
    13    12    13   ar
    14    13    14   ar
    15    14    15   ar
    16    15     8    1
    17     8     1    1
    18     1     2   ar
    19     2     3   ar
    20     3     4   ar
    21     4     5    1
    22     4     6   ar
    23     6    27    1
    24    27    29    1
    25    29    30   ar
    26    30    31   ar
    27    31    32   ar
    28    32    33   ar
    29    33    34   ar
    30    34    35    1
    31    35    36    2
    32    35    37    2
    33    35    38    1
    34    38    39    1
    35    38    40    1
    36     6     7   ar
    37    15    10   ar
    38     7     1   ar
    39    21    16    1
    40    34    29   ar
    41    19    22    1
    42     8     9    1
    43    27    28    1
@<TRIPOS>MOLECULE
*****
 40 43 0 0 0
SMALL
GASTEIGER

@<TRIPOS>ATOM
      1 C         139.1971  143.2346  161.8485 C.ar    1  UNL1        0.2220
      2 N         138.6617  143.2864  160.4482 N.ar    1  UNL1       -0.2110
      3 C         139.5925  143.5326  159.2980 C.ar    1  UNL1        0.1160
      4 C         141.0587  143.7270  159.5481 C.ar    1  UNL1        0.1085
      5 CL        141.9895  143.9732  158.3978 Cl      1  UNL1       -0.0777
      6 C         141.5940  143.6752  160.9483 C.ar    1  UNL1        0.1472
      7 N         140.6633  143.4290  162.0985 N.ar    1  UNL1       -0.1976
      8 N         138.2663  142.9884  162.9987 N.pl3   1  UNL1       -0.2776
      9 H         137.3120  143.2163  162.9172 H       1  UNL1        0.1552
     10 C         138.6831  140.9178  164.5117 C.ar    1  UNL1        0.2413
     11 N         139.2063  140.3244  165.7861 N.ar    1  UNL1       -0.1957
     12 C         139.8359  141.2080  166.8219 C.ar    1  UNL1        0.1420
     13 N         139.9423  142.6850  166.5833 N.ar    1  UNL1       -0.2277
     14 C         139.4191  143.2785  165.3089 C.ar    1  UNL1        0.1196
     15 C         138.7895  142.3949  164.2731 C.ar    1  UNL1        0.1238
     16 C         140.3591  140.6145  168.0963 C.3     1  UNL1        0.0615
     17 C         141.7337  140.0154  168.1357 C.3     1  UNL1        0.0247
     18 C         142.2569  139.4219  169.4100 C.3     1  UNL1        0.0690
     19 N         141.4055  139.4274  170.6450 N.3     1  UNL1       -0.2974
     20 C         140.0309  140.0265  170.6056 C.3     1  UNL1        0.0690
     21 C         139.5077  140.6200  169.3312 C.3     1  UNL1        0.0247
     22 H         141.9272  139.9343  171.3601 H       1  UNL1        0.1232
     23 O         138.0535  140.0342  163.4760 O.3     1  UNL1       -0.4631
     24 C         138.8873  137.6241  162.9799 C.3     1  UNL1        0.0473
     25 C         138.9041  139.0929  162.6758 C.3     1  UNL1        0.1678
     26 C         139.7715  139.6202  161.5714 C.3     1  UNL1        0.0473
     27 N         143.0603  143.8697  161.1983 N.pl3   1  UNL1       -0.2961
     28 H         143.6695  144.0424  160.4445 H       1  UNL1        0.1537
     29 C         143.5982  143.8009  162.5969 C.ar    1  UNL1        0.0667
     30 C         143.6757  145.0441  163.4326 C.ar    1  UNL1        0.0159
     31 C         144.2136  144.9753  164.8311 C.ar    1  UNL1        0.0014
     32 C         144.6740  143.6633  165.3940 C.ar    1  UNL1        0.0014
     33 C         144.5965  142.4201  164.5582 C.ar    1  UNL1        0.0196
     34 C         144.0585  142.4889  163.1596 C.ar    1  UNL1        0.1189
     35 S         143.9810  141.2457  162.3239 S.O2    1  UNL1        0.0082
     36 O         145.2020  141.6781  161.5675 O.2     1  UNL1       -0.1686
     37 O         142.7600  140.8134  163.0803 O.2     1  UNL1       -0.1686
     38 C         143.9035  140.0025  161.4882 C.3     1  UNL1        0.1340
     39 C         143.9013  138.6549  162.1470 C.3     1  UNL1        0.0257
     40 C         143.8282  140.1069  159.9938 C.3     1  UNL1        0.0257
@<TRIPOS>BOND
     1    24    25    1
     2    25    26    1
     3    25    23    1
     4    23    10    1
     5    10    11   ar
     6    11    12   ar
     7    12    16    1
     8    16    17    1
     9    17    18    1
    10    18    19    1
    11    19    20    1
    12    20    21    1
    13    12    13   ar
    14    13    14   ar
    15    14    15   ar
    16    15     8    1
    17     8     1    1
    18     1     2   ar
    19     2     3   ar
    20     3     4   ar
    21     4     5    1
    22     4     6   ar
    23     6    27    1
    24    27    29    1
    25    29    30   ar
    26    30    31   ar
    27    31    32   ar
    28    32    33   ar
    29    33    34   ar
    30    34    35    1
    31    35    36    2
    32    35    37    2
    33    35    38    1
    34    38    39    1
    35    38    40    1
    36     6     7   ar
    37    15    10   ar
    38     7     1   ar
    39    21    16    1
    40    34    29   ar
    41    19    22    1
    42     8     9    1
    43    27    28    1
@<TRIPOS>MOLECULE
*****
 40 43 0 0 0
SMALL
GASTEIGER

@<TRIPOS>ATOM
      1 C         142.4922  139.4658  160.8696 C.ar    1  UNL1        0.2220
      2 N         142.4429  138.9714  159.4542 N.ar    1  UNL1       -0.2110
      3 C         142.6820  139.9222  158.3190 C.ar    1  UNL1        0.1160
      4 C         142.9704  141.3674  158.5991 C.ar    1  UNL1        0.1085
      5 CL        143.2095  142.3182  157.4639 Cl      1  UNL1       -0.0777
      6 C         143.0196  141.8617  160.0145 C.ar    1  UNL1        0.1472
      7 N         142.7806  140.9109  161.1497 N.ar    1  UNL1       -0.1976
      8 N         142.2531  138.5149  162.0049 N.pl3   1  UNL1       -0.2776
      9 H         142.0270  137.5747  161.8202 H       1  UNL1        0.1552
     10 C         141.1784  139.6446  164.0830 C.ar    1  UNL1        0.2413
     11 N         141.2838  140.1264  165.4996 N.ar    1  UNL1       -0.1957
     12 C         142.5692  139.9602  166.2547 C.ar    1  UNL1        0.1420
     13 N         143.7492  139.3122  165.5932 N.ar    1  UNL1       -0.2277
     14 C         143.6438  138.8305  164.1766 C.ar    1  UNL1        0.1196
     15 C         142.3584  138.9967  163.4215 C.ar    1  UNL1        0.1238
     16 C         142.6745  140.4419  167.6714 C.3     1  UNL1        0.0615
     17 C         142.5096  139.4753  168.8065 C.3     1  UNL1        0.0247
     18 C         142.6150  139.9570  170.2231 C.3     1  UNL1        0.0690
     19 N         142.8851  141.4054  170.5047 N.3     1  UNL1       -0.2974
     20 C         143.0500  142.3721  169.3696 C.3     1  UNL1        0.0690
     21 C         142.9446  141.8903  167.9529 C.3     1  UNL1        0.0247
     22 H         143.7455  141.4436  171.0513 H       1  UNL1        0.1232
     23 O         139.8930  139.8109  163.3280 O.3     1  UNL1       -0.4631
     24 C         137.9702  138.5849  162.0830 C.3     1  UNL1        0.0473
     25 C         138.9229  138.6703  163.2385 C.3     1  UNL1        0.1678
     26 C         138.9054  137.6152  164.3045 C.3     1  UNL1        0.0473
     27 N         143.3080  143.3068  160.2946 N.pl3   1  UNL1       -0.2961
     28 H         144.1915  143.6834  160.0782 H       1  UNL1        0.1537
     29 C         142.2503  144.1782  160.9044 C.ar    1  UNL1        0.0667
     30 C         141.1783  144.7730  160.0401 C.ar    1  UNL1        0.0159
     31 C         140.1206  145.6443  160.6499 C.ar    1  UNL1        0.0014
     32 C         140.1348  145.9209  162.1241 C.ar    1  UNL1        0.0014
     33 C         141.2067  145.3260  162.9885 C.ar    1  UNL1        0.0196
     34 C         142.2645  144.4547  162.3786 C.ar    1  UNL1        0.1189
     35 S         143.3364  143.8599  163.2430 S.O2    1  UNL1        0.0082
     36 O         144.3606  144.7213  162.5656 O.2     1  UNL1       -0.1686
     37 O         142.3122  142.9984  163.9204 O.2     1  UNL1       -0.1686
     38 C         144.4083  143.2650  164.1074 C.3     1  UNL1        0.1340
     39 C         144.6386  143.7984  165.4904 C.3     1  UNL1        0.0257
     40 C         145.2500  142.1369  163.5888 C.3     1  UNL1        0.0257
@<TRIPOS>BOND
     1    24    25    1
     2    25    26    1
     3    25    23    1
     4    23    10    1
     5    10    11   ar
     6    11    12   ar
     7    12    16    1
     8    16    17    1
     9    17    18    1
    10    18    19    1
    11    19    20    1
    12    20    21    1
    13    12    13   ar
    14    13    14   ar
    15    14    15   ar
    16    15     8    1
    17     8     1    1
    18     1     2   ar
    19     2     3   ar
    20     3     4   ar
    21     4     5    1
    22     4     6   ar
    23     6    27    1
    24    27    29    1
    25    29    30   ar
    26    30    31   ar
    27    31    32   ar
    28    32    33   ar
    29    33    34   ar
    30    34    35    1
    31    35    36    2
    32    35    37    2
    33    35    38    1
    34    38    39    1
    35    38    40    1
    36     6     7   ar
    37    15    10   ar
    38     7     1   ar
    39    21    16    1
    40    34    29   ar
    41    19    22    1
    42     8     9    1
    43    27    28    1
