@<TRIPOS>MOLECULE
*****
 34 38 0 0 0
SMALL
GASTEIGER

@<TRIPOS>ATOM
      1 N         142.0267  144.4895  160.9452 N.ar    1  UNL1       -0.1967
      2 N         143.2700  143.9837  161.6148 N.ar    1  UNL1       -0.1666
      3 C         142.9776  143.8268  163.0776 C.ar    1  UNL1        0.0849
      4 C         141.5535  144.2356  163.3121 C.ar    1  UNL1        0.0342
      5 C         140.7160  144.2878  164.5553 C.ar    1  UNL1        0.0141
      6 C         139.2909  144.7496  164.4808 C.ar    1  UNL1        0.0578
      7 CL        138.4533  144.8019  165.7241 Cl      1  UNL1       -0.0822
      8 C         138.7031  145.1593  163.1628 C.ar    1  UNL1        0.0129
      9 C         139.5407  145.1070  161.9195 C.ar    1  UNL1        0.0202
     10 C         140.9658  144.6452  161.9941 C.ar    1  UNL1        0.0871
     11 C         141.0260  146.1744  153.7329 C.3     1  UNL1        0.0137
     12 C         141.1812  145.8765  155.1948 C.3     1  UNL1        0.0932
     13 C         142.2565  144.9403  154.7291 C.3     1  UNL1        0.0137
     14 C         140.0734  146.8751  155.3549 C.2     1  UNL1        0.2302
     15 O         139.3902  147.6194  154.2462 O.2     1  UNL1       -0.2744
     16 N         139.7687  146.9987  156.8185 N.am    1  UNL1       -0.2692
     17 C         140.6882  146.0765  157.5629 C.ar    1  UNL1        0.1363
     18 N         140.8434  145.7787  159.0248 N.ar    1  UNL1       -0.1951
     19 C         141.8715  144.7874  159.4832 C.ar    1  UNL1        0.2553
     20 N         142.7444  144.0938  158.4797 N.ar    1  UNL1       -0.1957
     21 C         142.5893  144.3916  157.0178 C.ar    1  UNL1        0.1276
     22 N         143.4623  143.6981  156.0144 N.pl3   1  UNL1       -0.3427
     23 C         141.5612  145.3830  156.5594 C.ar    1  UNL1        0.0484
     24 H         139.0852  147.5825  157.2200 H       1  UNL1        0.1563
     25 H         144.1371  143.0475  156.3153 H       1  UNL1        0.1437
     26 H         143.3604  143.8936  155.0548 H       1  UNL1        0.1437
     27 C         143.9402  143.3455  164.1225 C.3     1  UNL1        0.0762
     28 C         143.9686  141.8954  164.5050 C.ar    1  UNL1        0.0113
     29 C         142.8593  141.3159  165.3319 C.ar    1  UNL1       -0.0017
     30 C         142.8878  139.8659  165.7144 C.ar    1  UNL1       -0.0002
     31 C         144.0255  138.9952  165.2700 C.ar    1  UNL1        0.0023
     32 C         145.1347  139.5746  164.4431 C.ar    1  UNL1        0.0293
     33 C         145.1063  141.0247  164.0606 C.ar    1  UNL1        0.1365
     34 F         146.2156  141.6041  163.2336 F       1  UNL1       -0.2045
@<TRIPOS>BOND
     1    11    12    1
     2    12    13    1
     3    12    14    1
     4    14    15    2
     5    14    16   am
     6    16    17    1
     7    17    18   ar
     8    18    19   ar
     9    19     1    1
    10     1     2   ar
    11     2     3   ar
    12     3    27    1
    13    27    28    1
    14    28    29   ar
    15    29    30   ar
    16    30    31   ar
    17    31    32   ar
    18    32    33   ar
    19    33    34    1
    20     3     4   ar
    21     4     5   ar
    22     5     6   ar
    23     6     7    1
    24     6     8   ar
    25     8     9   ar
    26     9    10   ar
    27    19    20   ar
    28    20    21   ar
    29    21    22    1
    30    21    23   ar
    31    23    12    1
    32    23    17   ar
    33    10     1   ar
    34    33    28   ar
    35    10     4   ar
    36    16    24    1
    37    22    25    1
    38    22    26    1
@<TRIPOS>MOLECULE
*****
 34 38 0 0 0
SMALL
GASTEIGER

@<TRIPOS>ATOM
      1 N         140.5622  142.6145  163.9815 N.ar    1  UNL1       -0.1967
      2 N         140.7932  143.3743  165.2540 N.ar    1  UNL1       -0.1666
      3 C         140.2602  142.5510  166.3888 C.ar    1  UNL1        0.0849
      4 C         139.6997  141.2822  165.8176 C.ar    1  UNL1        0.0342
      5 C         139.0434  140.0962  166.4601 C.ar    1  UNL1        0.0141
      6 C         138.5739  138.9496  165.6148 C.ar    1  UNL1        0.0578
      7 CL        137.9176  137.7636  166.2573 Cl      1  UNL1       -0.0822
      8 C         138.7605  138.9889  164.1269 C.ar    1  UNL1        0.0129
      9 C         139.4167  140.1749  163.4845 C.ar    1  UNL1        0.0202
     10 C         139.8863  141.3216  164.3298 C.ar    1  UNL1        0.0871
     11 C         142.2011  145.0658  157.1140 C.3     1  UNL1        0.0137
     12 C         141.8227  144.6122  158.4928 C.3     1  UNL1        0.0932
     13 C         143.0329  143.7351  158.3658 C.3     1  UNL1        0.0137
     14 C         140.6917  145.5841  158.3315 C.2     1  UNL1        0.2302
     15 O         140.4308  146.4417  157.1288 O.2     1  UNL1       -0.2744
     16 N         139.8672  145.5478  159.5841 N.am    1  UNL1       -0.2692
     17 C         140.4888  144.5535  160.5195 C.ar    1  UNL1        0.1363
     18 N         140.1104  144.0999  161.8983 N.ar    1  UNL1       -0.1951
     19 C         140.9406  143.0681  162.6026 C.ar    1  UNL1        0.2553
     20 N         142.1492  142.4899  161.9281 N.ar    1  UNL1       -0.1957
     21 C         142.5276  142.9434  160.5494 C.ar    1  UNL1        0.1276
     22 N         143.7362  142.3652  159.8749 N.pl3   1  UNL1       -0.3427
     23 C         141.6974  143.9752  159.8451 C.ar    1  UNL1        0.0484
     24 H         139.0599  146.0827  159.7612 H       1  UNL1        0.1563
     25 H         144.2811  141.6879  160.3372 H       1  UNL1        0.1437
     26 H         143.9845  142.6628  158.9700 H       1  UNL1        0.1437
     27 C         140.2836  142.9298  167.8400 C.3     1  UNL1        0.0762
     28 C         141.0799  142.1144  168.8152 C.ar    1  UNL1        0.0113
     29 C         142.5723  142.2555  168.8682 C.ar    1  UNL1       -0.0017
     30 C         143.3685  141.4402  169.8434 C.ar    1  UNL1       -0.0002
     31 C         142.6724  140.4836  170.7656 C.ar    1  UNL1        0.0023
     32 C         141.1801  140.3425  170.7126 C.ar    1  UNL1        0.0293
     33 C         140.3838  141.1579  169.7374 C.ar    1  UNL1        0.1365
     34 F         138.8914  141.0167  169.6844 F       1  UNL1       -0.2045
@<TRIPOS>BOND
     1    11    12    1
     2    12    13    1
     3    12    14    1
     4    14    15    2
     5    14    16   am
     6    16    17    1
     7    17    18   ar
     8    18    19   ar
     9    19     1    1
    10     1     2   ar
    11     2     3   ar
    12     3    27    1
    13    27    28    1
    14    28    29   ar
    15    29    30   ar
    16    30    31   ar
    17    31    32   ar
    18    32    33   ar
    19    33    34    1
    20     3     4   ar
    21     4     5   ar
    22     5     6   ar
    23     6     7    1
    24     6     8   ar
    25     8     9   ar
    26     9    10   ar
    27    19    20   ar
    28    20    21   ar
    29    21    22    1
    30    21    23   ar
    31    23    12    1
    32    23    17   ar
    33    10     1   ar
    34    33    28   ar
    35    10     4   ar
    36    16    24    1
    37    22    25    1
    38    22    26    1
@<TRIPOS>MOLECULE
*****
 34 38 0 0 0
SMALL
GASTEIGER

@<TRIPOS>ATOM
      1 N         142.0131  144.5227  160.8410 N.ar    1  UNL1       -0.1967
      2 N         143.2648  144.0501  161.5193 N.ar    1  UNL1       -0.1666
      3 C         142.9689  143.8933  162.9814 C.ar    1  UNL1        0.0849
      4 C         141.5342  144.2689  163.2068 C.ar    1  UNL1        0.0342
      5 C         140.6893  144.3070  164.4456 C.ar    1  UNL1        0.0141
      6 C         139.2540  144.7341  164.3617 C.ar    1  UNL1        0.0578
      7 CL        138.4091  144.7722  165.6006 Cl      1  UNL1       -0.0822
      8 C         138.6633  145.1231  163.0389 C.ar    1  UNL1        0.0129
      9 C         139.5081  145.0850  161.8000 C.ar    1  UNL1        0.0202
     10 C         140.9436  144.6579  161.8840 C.ar    1  UNL1        0.0871
     11 C         141.4758  145.7548  153.4891 C.3     1  UNL1        0.0137
     12 C         141.6307  145.4679  154.9533 C.3     1  UNL1        0.0932
     13 C         140.4965  146.4380  155.1028 C.3     1  UNL1        0.0137
     14 C         142.7324  144.5577  154.4977 C.2     1  UNL1        0.2302
     15 O         143.1604  144.3335  153.0776 O.2     1  UNL1       -0.2744
     16 N         143.3311  143.9110  155.7115 N.am    1  UNL1       -0.2692
     17 C         142.5994  144.4215  156.9173 C.ar    1  UNL1        0.1363
     18 N         142.7543  144.1345  158.3814 N.ar    1  UNL1       -0.1951
     19 C         141.8582  144.8097  159.3769 C.ar    1  UNL1        0.2553
     20 N         140.8073  145.7719  158.9083 N.ar    1  UNL1       -0.1957
     21 C         140.6524  146.0589  157.4442 C.ar    1  UNL1        0.1276
     22 N         139.6014  147.0212  156.9756 N.pl3   1  UNL1       -0.3427
     23 C         141.5484  145.3837  156.4487 C.ar    1  UNL1        0.0484
     24 H         144.0740  143.2649  155.7159 H       1  UNL1        0.1563
     25 H         139.0133  147.4643  157.6290 H       1  UNL1        0.1437
     26 H         139.4997  147.2095  156.0147 H       1  UNL1        0.1437
     27 C         143.9374  143.4403  164.0334 C.3     1  UNL1        0.0762
     28 C         144.0068  141.9913  164.4149 C.ar    1  UNL1        0.0113
     29 C         142.9197  141.3828  165.2504 C.ar    1  UNL1       -0.0017
     30 C         142.9891  139.9339  165.6319 C.ar    1  UNL1       -0.0002
     31 C         144.1456  139.0934  165.1780 C.ar    1  UNL1        0.0023
     32 C         145.2327  139.7018  164.3426 C.ar    1  UNL1        0.0293
     33 C         145.1633  141.1508  163.9610 C.ar    1  UNL1        0.1365
     34 F         146.2504  141.7593  163.1256 F       1  UNL1       -0.2045
@<TRIPOS>BOND
     1    11    12    1
     2    12    13    1
     3    12    14    1
     4    14    15    2
     5    14    16   am
     6    16    17    1
     7    17    18   ar
     8    18    19   ar
     9    19     1    1
    10     1     2   ar
    11     2     3   ar
    12     3    27    1
    13    27    28    1
    14    28    29   ar
    15    29    30   ar
    16    30    31   ar
    17    31    32   ar
    18    32    33   ar
    19    33    34    1
    20     3     4   ar
    21     4     5   ar
    22     5     6   ar
    23     6     7    1
    24     6     8   ar
    25     8     9   ar
    26     9    10   ar
    27    19    20   ar
    28    20    21   ar
    29    21    22    1
    30    21    23   ar
    31    23    12    1
    32    23    17   ar
    33    10     1   ar
    34    33    28   ar
    35    10     4   ar
    36    16    24    1
    37    22    25    1
    38    22    26    1
@<TRIPOS>MOLECULE
*****
 34 38 0 0 0
SMALL
GASTEIGER

@<TRIPOS>ATOM
      1 N         141.1257  141.8332  163.8624 N.ar    1  UNL1       -0.1967
      2 N         141.2808  142.7995  164.9991 N.ar    1  UNL1       -0.1666
      3 C         140.5270  142.2555  166.1763 C.ar    1  UNL1        0.0849
      4 C         139.9059  140.9529  165.7671 C.ar    1  UNL1        0.0342
      5 C         139.0512  139.9706  166.5119 C.ar    1  UNL1        0.0141
      6 C         138.5665  138.7275  165.8267 C.ar    1  UNL1        0.0578
      7 CL        137.7118  137.7452  166.5716 Cl      1  UNL1       -0.0822
      8 C         138.9365  138.4664  164.3966 C.ar    1  UNL1        0.0129
      9 C         139.7912  139.4486  163.6518 C.ar    1  UNL1        0.0202
     10 C         140.2759  140.6919  164.3371 C.ar    1  UNL1        0.0871
     11 C         144.1689  142.2796  157.0509 C.3     1  UNL1        0.0137
     12 C         143.5780  142.1308  158.4216 C.3     1  UNL1        0.0932
     13 C         143.1528  143.5552  158.2215 C.3     1  UNL1        0.0137
     14 C         144.1267  140.7374  158.3352 C.2     1  UNL1        0.2302
     15 O         144.8832  140.1580  157.1768 O.2     1  UNL1       -0.2744
     16 N         143.7861  140.0252  159.6107 N.am    1  UNL1       -0.2692
     17 C         143.0268  140.9784  160.4853 C.ar    1  UNL1        0.1363
     18 N         142.4360  140.8296  161.8560 N.ar    1  UNL1       -0.1951
     19 C         141.7165  141.9820  162.4917 C.ar    1  UNL1        0.2553
     20 N         141.5880  143.2833  161.7568 N.ar    1  UNL1       -0.1957
     21 C         142.1788  143.4322  160.3862 C.ar    1  UNL1        0.1276
     22 N         142.0502  144.7335  159.6513 N.pl3   1  UNL1       -0.3427
     23 C         142.8982  142.2797  159.7504 C.ar    1  UNL1        0.0484
     24 H         144.0198  139.0954  159.8344 H       1  UNL1        0.1563
     25 H         141.5780  145.4899  160.0686 H       1  UNL1        0.1437
     26 H         142.4380  144.8312  158.7517 H       1  UNL1        0.1437
     27 C         140.4140  142.9008  167.5257 C.3     1  UNL1        0.0762
     28 C         141.0167  142.2360  168.7277 C.ar    1  UNL1        0.0113
     29 C         140.1308  141.7240  169.8246 C.ar    1  UNL1       -0.0017
     30 C         140.7335  141.0593  171.0265 C.ar    1  UNL1       -0.0002
     31 C         142.2220  140.9064  171.1316 C.ar    1  UNL1        0.0023
     32 C         143.1078  141.4183  170.0348 C.ar    1  UNL1        0.0293
     33 C         142.5051  142.0831  168.8328 C.ar    1  UNL1        0.1365
     34 F         143.3910  142.5951  167.7358 F       1  UNL1       -0.2045
@<TRIPOS>BOND
     1    11    12    1
     2    12    13    1
     3    12    14    1
     4    14    15    2
     5    14    16   am
     6    16    17    1
     7    17    18   ar
     8    18    19   ar
     9    19     1    1
    10     1     2   ar
    11     2     3   ar
    12     3    27    1
    13    27    28    1
    14    28    29   ar
    15    29    30   ar
    16    30    31   ar
    17    31    32   ar
    18    32    33   ar
    19    33    34    1
    20     3     4   ar
    21     4     5   ar
    22     5     6   ar
    23     6     7    1
    24     6     8   ar
    25     8     9   ar
    26     9    10   ar
    27    19    20   ar
    28    20    21   ar
    29    21    22    1
    30    21    23   ar
    31    23    12    1
    32    23    17   ar
    33    10     1   ar
    34    33    28   ar
    35    10     4   ar
    36    16    24    1
    37    22    25    1
    38    22    26    1
@<TRIPOS>MOLECULE
*****
 34 38 0 0 0
SMALL
GASTEIGER

@<TRIPOS>ATOM
      1 N         139.4276  139.6968  159.8375 N.ar    1  UNL1       -0.1967
      2 N         139.0217  141.1381  159.7470 N.ar    1  UNL1       -0.1666
      3 C         138.5579  141.5752  161.1048 C.ar    1  UNL1        0.0849
      4 C         138.6771  140.4041  162.0346 C.ar    1  UNL1        0.0342
      5 C         138.3656  140.2447  163.4932 C.ar    1  UNL1        0.0141
      6 C         138.5916  138.9247  164.1685 C.ar    1  UNL1        0.0578
      7 CL        138.2802  138.7654  165.6272 Cl      1  UNL1       -0.0822
      8 C         139.1291  137.7637  163.3853 C.ar    1  UNL1        0.0129
      9 C         139.4406  137.9230  161.9266 C.ar    1  UNL1        0.0202
     10 C         139.2146  139.2432  161.2513 C.ar    1  UNL1        0.0871
     11 C         142.3328  135.5228  154.3608 C.3     1  UNL1        0.0137
     12 C         141.8063  136.3629  155.4865 C.3     1  UNL1        0.0932
     13 C         140.4997  136.2368  154.7607 C.3     1  UNL1        0.0137
     14 C         143.2230  136.3134  155.9770 C.2     1  UNL1        0.2302
     15 O         144.3634  135.6051  155.3078 O.2     1  UNL1       -0.2744
     16 N         143.2990  137.0965  157.2540 N.am    1  UNL1       -0.2692
     17 C         141.9293  137.6300  157.5529 C.ar    1  UNL1        0.1363
     18 N         141.4029  138.4700  158.6785 N.ar    1  UNL1       -0.1951
     19 C         139.9540  138.8567  158.7118 C.ar    1  UNL1        0.2553
     20 N         139.0315  138.4034  157.6194 N.ar    1  UNL1       -0.1957
     21 C         139.5579  137.5633  156.4937 C.ar    1  UNL1        0.1276
     22 N         138.6353  137.1100  155.4012 N.pl3   1  UNL1       -0.3427
     23 C         141.0067  137.1766  156.4604 C.ar    1  UNL1        0.0484
     24 H         144.1061  137.2358  157.8002 H       1  UNL1        0.1563
     25 H         137.6844  137.3638  155.4231 H       1  UNL1        0.1437
     26 H         138.9808  136.5586  154.6624 H       1  UNL1        0.1437
     27 C         138.0620  142.9432  161.4691 C.3     1  UNL1        0.0762
     28 C         138.4595  143.5615  162.7766 C.ar    1  UNL1        0.0113
     29 C         137.4210  143.8330  163.8244 C.ar    1  UNL1       -0.0017
     30 C         137.8185  144.4513  165.1318 C.ar    1  UNL1       -0.0002
     31 C         139.2546  144.7981  165.3916 C.ar    1  UNL1        0.0023
     32 C         140.2930  144.5267  164.3439 C.ar    1  UNL1        0.0293
     33 C         139.8955  143.9083  163.0364 C.ar    1  UNL1        0.1365
     34 F         140.9340  143.6369  161.9886 F       1  UNL1       -0.2045
@<TRIPOS>BOND
     1    11    12    1
     2    12    13    1
     3    12    14    1
     4    14    15    2
     5    14    16   am
     6    16    17    1
     7    17    18   ar
     8    18    19   ar
     9    19     1    1
    10     1     2   ar
    11     2     3   ar
    12     3    27    1
    13    27    28    1
    14    28    29   ar
    15    29    30   ar
    16    30    31   ar
    17    31    32   ar
    18    32    33   ar
    19    33    34    1
    20     3     4   ar
    21     4     5   ar
    22     5     6   ar
    23     6     7    1
    24     6     8   ar
    25     8     9   ar
    26     9    10   ar
    27    19    20   ar
    28    20    21   ar
    29    21    22    1
    30    21    23   ar
    31    23    12    1
    32    23    17   ar
    33    10     1   ar
    34    33    28   ar
    35    10     4   ar
    36    16    24    1
    37    22    25    1
    38    22    26    1
@<TRIPOS>MOLECULE
*****
 34 38 0 0 0
SMALL
GASTEIGER

@<TRIPOS>ATOM
      1 N         139.7837  138.9597  160.9347 N.ar    1  UNL1       -0.1967
      2 N         139.7231  138.0308  162.1110 N.ar    1  UNL1       -0.1666
      3 C         139.1232  138.7807  163.2633 C.ar    1  UNL1        0.0849
      4 C         138.8131  140.1730  162.7991 C.ar    1  UNL1        0.0342
      5 C         138.2117  141.3544  163.5010 C.ar    1  UNL1        0.0141
      6 C         138.0186  142.6463  162.7638 C.ar    1  UNL1        0.0578
      7 CL        137.4172  143.8278  163.4657 Cl      1  UNL1       -0.0822
      8 C         138.4268  142.7569  161.3246 C.ar    1  UNL1        0.0129
      9 C         139.0282  141.5755  160.6227 C.ar    1  UNL1        0.0202
     10 C         139.2213  140.2836  161.3600 C.ar    1  UNL1        0.0871
     11 C         142.7024  137.3956  154.2345 C.3     1  UNL1        0.0137
     12 C         142.1724  137.7318  155.5969 C.3     1  UNL1        0.0932
     13 C         140.8870  137.1736  155.0620 C.3     1  UNL1        0.0137
     14 C         143.5686  138.2197  155.8470 C.2     1  UNL1        0.2302
     15 O         144.7016  138.1915  154.8645 O.2     1  UNL1       -0.2744
     16 N         143.6327  138.7407  157.2522 N.am    1  UNL1       -0.2692
     17 C         142.2762  138.5748  157.8705 C.ar    1  UNL1        0.1363
     18 N         141.7463  138.9109  159.2329 N.ar    1  UNL1       -0.1951
     19 C         140.3138  138.6235  159.5722 C.ar    1  UNL1        0.2553
     20 N         139.4112  138.0000  158.5492 N.ar    1  UNL1       -0.1957
     21 C         139.9411  137.6638  157.1869 C.ar    1  UNL1        0.1276
     22 N         139.0385  137.0403  156.1639 N.pl3   1  UNL1       -0.3427
     23 C         141.3736  137.9512  156.8475 C.ar    1  UNL1        0.0484
     24 H         144.4260  139.1242  157.6915 H       1  UNL1        0.1563
     25 H         138.0983  136.8516  156.3866 H       1  UNL1        0.1437
     26 H         139.3864  136.8196  155.2697 H       1  UNL1        0.1437
     27 C         138.8767  138.2343  164.6383 C.3     1  UNL1        0.0762
     28 C         139.5134  138.8863  165.8297 C.ar    1  UNL1        0.0113
     29 C         140.9785  139.2079  165.8150 C.ar    1  UNL1       -0.0017
     30 C         141.6151  139.8599  167.0064 C.ar    1  UNL1       -0.0002
     31 C         140.7867  140.1903  168.2125 C.ar    1  UNL1        0.0023
     32 C         139.3217  139.8688  168.2271 C.ar    1  UNL1        0.0293
     33 C         138.6850  139.2167  167.0357 C.ar    1  UNL1        0.1365
     34 F         137.2200  138.8951  167.0504 F       1  UNL1       -0.2045
@<TRIPOS>BOND
     1    11    12    1
     2    12    13    1
     3    12    14    1
     4    14    15    2
     5    14    16   am
     6    16    17    1
     7    17    18   ar
     8    18    19   ar
     9    19     1    1
    10     1     2   ar
    11     2     3   ar
    12     3    27    1
    13    27    28    1
    14    28    29   ar
    15    29    30   ar
    16    30    31   ar
    17    31    32   ar
    18    32    33   ar
    19    33    34    1
    20     3     4   ar
    21     4     5   ar
    22     5     6   ar
    23     6     7    1
    24     6     8   ar
    25     8     9   ar
    26     9    10   ar
    27    19    20   ar
    28    20    21   ar
    29    21    22    1
    30    21    23   ar
    31    23    12    1
    32    23    17   ar
    33    10     1   ar
    34    33    28   ar
    35    10     4   ar
    36    16    24    1
    37    22    25    1
    38    22    26    1
@<TRIPOS>MOLECULE
*****
 34 38 0 0 0
SMALL
GASTEIGER

@<TRIPOS>ATOM
      1 N         140.7552  144.8240  158.2301 N.ar    1  UNL1       -0.1967
      2 N         141.0771  145.8985  157.2342 N.ar    1  UNL1       -0.1666
      3 C         140.1120  145.7766  156.0924 C.ar    1  UNL1        0.0849
      4 C         139.1935  144.6266  156.3827 C.ar    1  UNL1        0.0342
      5 C         138.0466  144.0395  155.6147 C.ar    1  UNL1        0.0141
      6 C         137.2973  142.8637  156.1678 C.ar    1  UNL1        0.0578
      7 CL        136.1503  142.2766  155.3998 Cl      1  UNL1       -0.0822
      8 C         137.6949  142.2750  157.4890 C.ar    1  UNL1        0.0129
      9 C         138.8418  142.8621  158.2570 C.ar    1  UNL1        0.0202
     10 C         139.5911  144.0379  157.7038 C.ar    1  UNL1        0.0871
     11 C         144.5111  143.4003  164.5328 C.3     1  UNL1        0.0137
     12 C         143.7946  143.6457  163.2379 C.3     1  UNL1        0.0932
     13 C         142.9640  144.5880  164.0577 C.3     1  UNL1        0.0137
     14 C         144.7750  142.6520  162.6889 C.2     1  UNL1        0.2302
     15 O         145.8508  141.9529  163.4661 O.2     1  UNL1       -0.2744
     16 N         144.4909  142.4803  161.2261 N.am    1  UNL1       -0.2692
     17 C         143.3348  143.3678  160.8711 C.ar    1  UNL1        0.1363
     18 N         142.6184  143.6131  159.5763 N.ar    1  UNL1       -0.1951
     19 C         141.4717  144.5786  159.5249 C.ar    1  UNL1        0.2553
     20 N         141.0414  145.2989  160.7683 N.ar    1  UNL1       -0.1957
     21 C         141.7578  145.0536  162.0631 C.ar    1  UNL1        0.1276
     22 N         141.3275  145.7738  163.3065 N.pl3   1  UNL1       -0.3427
     23 C         142.9045  144.0880  162.1145 C.ar    1  UNL1        0.0484
     24 H         144.9776  141.8889  160.6076 H       1  UNL1        0.1563
     25 H         140.5748  146.4075  163.2728 H       1  UNL1        0.1437
     26 H         141.7977  145.6128  164.1564 H       1  UNL1        0.1437
     27 C         140.0722  146.6510  154.8743 C.3     1  UNL1        0.0762
     28 C         139.6234  148.0776  154.9896 C.ar    1  UNL1        0.0113
     29 C         138.7902  148.5096  156.1597 C.ar    1  UNL1       -0.0017
     30 C         138.3415  149.9362  156.2749 C.ar    1  UNL1       -0.0002
     31 C         138.7260  150.9309  155.2200 C.ar    1  UNL1        0.0023
     32 C         139.5591  150.4989  154.0500 C.ar    1  UNL1        0.0293
     33 C         140.0078  149.0723  153.9347 C.ar    1  UNL1        0.1365
     34 F         140.8410  148.6403  152.7646 F       1  UNL1       -0.2045
@<TRIPOS>BOND
     1    11    12    1
     2    12    13    1
     3    12    14    1
     4    14    15    2
     5    14    16   am
     6    16    17    1
     7    17    18   ar
     8    18    19   ar
     9    19     1    1
    10     1     2   ar
    11     2     3   ar
    12     3    27    1
    13    27    28    1
    14    28    29   ar
    15    29    30   ar
    16    30    31   ar
    17    31    32   ar
    18    32    33   ar
    19    33    34    1
    20     3     4   ar
    21     4     5   ar
    22     5     6   ar
    23     6     7    1
    24     6     8   ar
    25     8     9   ar
    26     9    10   ar
    27    19    20   ar
    28    20    21   ar
    29    21    22    1
    30    21    23   ar
    31    23    12    1
    32    23    17   ar
    33    10     1   ar
    34    33    28   ar
    35    10     4   ar
    36    16    24    1
    37    22    25    1
    38    22    26    1
@<TRIPOS>MOLECULE
*****
 34 38 0 0 0
SMALL
GASTEIGER

@<TRIPOS>ATOM
      1 N         142.2635  142.4139  162.8946 N.ar    1  UNL1       -0.1967
      2 N         142.9994  141.8365  164.0672 N.ar    1  UNL1       -0.1666
      3 C         142.2670  142.2327  165.3149 C.ar    1  UNL1        0.0849
      4 C         141.0785  143.0551  164.9133 C.ar    1  UNL1        0.0342
      5 C         139.9979  143.7164  165.7164 C.ar    1  UNL1        0.0141
      6 C         138.9153  144.4896  165.0238 C.ar    1  UNL1        0.0578
      7 CL        137.8347  145.1510  165.8270 Cl      1  UNL1       -0.0822
      8 C         138.9131  144.6017  163.5280 C.ar    1  UNL1        0.0129
      9 C         139.9937  143.9404  162.7248 C.ar    1  UNL1        0.0202
     10 C         141.0764  143.1671  163.4175 C.ar    1  UNL1        0.0871
     11 C         144.2321  141.3671  155.7611 C.3     1  UNL1        0.0137
     12 C         143.8482  141.5165  157.2035 C.3     1  UNL1        0.0932
     13 C         143.6140  142.9502  156.8296 C.3     1  UNL1        0.0137
     14 C         144.1626  140.0517  157.2759 C.2     1  UNL1        0.2302
     15 O         144.6330  139.1936  156.1390 O.2     1  UNL1       -0.2744
     16 N         143.9240  139.5955  158.6847 N.am    1  UNL1       -0.2692
     17 C         143.4622  140.7784  159.4831 C.ar    1  UNL1        0.1363
     18 N         143.0782  140.9278  160.9254 N.ar    1  UNL1       -0.1951
     19 C         142.6474  142.2645  161.4522 C.ar    1  UNL1        0.2553
     20 N         142.6006  143.4518  160.5368 N.ar    1  UNL1       -0.1957
     21 C         142.9845  143.3024  159.0945 C.ar    1  UNL1        0.1276
     22 N         142.9376  144.4897  158.1790 N.pl3   1  UNL1       -0.3427
     23 C         143.4153  141.9657  158.5677 C.ar    1  UNL1        0.0484
     24 H         144.0487  138.6803  159.0256 H       1  UNL1        0.1563
     25 H         142.6548  145.3671  158.5248 H       1  UNL1        0.1437
     26 H         143.1896  144.3917  157.2324 H       1  UNL1        0.1437
     27 C         142.6550  141.8702  166.7178 C.3     1  UNL1        0.0762
     28 C         141.5942  141.5988  167.7429 C.ar    1  UNL1        0.0113
     29 C         141.3721  142.5671  168.8669 C.ar    1  UNL1       -0.0017
     30 C         140.3113  142.2956  169.8920 C.ar    1  UNL1       -0.0002
     31 C         139.4725  141.0561  169.7932 C.ar    1  UNL1        0.0023
     32 C         139.6945  140.0879  168.6693 C.ar    1  UNL1        0.0293
     33 C         140.7554  140.3593  167.6441 C.ar    1  UNL1        0.1365
     34 F         140.9774  139.3910  166.5202 F       1  UNL1       -0.2045
@<TRIPOS>BOND
     1    11    12    1
     2    12    13    1
     3    12    14    1
     4    14    15    2
     5    14    16   am
     6    16    17    1
     7    17    18   ar
     8    18    19   ar
     9    19     1    1
    10     1     2   ar
    11     2     3   ar
    12     3    27    1
    13    27    28    1
    14    28    29   ar
    15    29    30   ar
    16    30    31   ar
    17    31    32   ar
    18    32    33   ar
    19    33    34    1
    20     3     4   ar
    21     4     5   ar
    22     5     6   ar
    23     6     7    1
    24     6     8   ar
    25     8     9   ar
    26     9    10   ar
    27    19    20   ar
    28    20    21   ar
    29    21    22    1
    30    21    23   ar
    31    23    12    1
    32    23    17   ar
    33    10     1   ar
    34    33    28   ar
    35    10     4   ar
    36    16    24    1
    37    22    25    1
    38    22    26    1
@<TRIPOS>MOLECULE
*****
 34 38 0 0 0
SMALL
GASTEIGER

@<TRIPOS>ATOM
      1 N         143.9040  142.2862  160.5816 N.ar    1  UNL1       -0.1967
      2 N         143.2880  143.5879  161.0013 N.ar    1  UNL1       -0.1666
      3 C         142.8913  143.4695  162.4431 C.ar    1  UNL1        0.0849
      4 C         143.2622  142.0946  162.9144 C.ar    1  UNL1        0.0342
      5 C         143.1110  141.4141  164.2425 C.ar    1  UNL1        0.0141
      6 C         143.5855  140.0023  164.4202 C.ar    1  UNL1        0.0578
      7 CL        143.4342  139.3217  165.7484 Cl      1  UNL1       -0.0822
      8 C         144.2113  139.2709  163.2697 C.ar    1  UNL1        0.0129
      9 C         144.3626  139.9515  161.9416 C.ar    1  UNL1        0.0202
     10 C         143.8881  141.3633  161.7639 C.ar    1  UNL1        0.0871
     11 C         146.7645  140.9332  153.8108 C.3     1  UNL1        0.0137
     12 C         146.2270  141.2553  155.1736 C.3     1  UNL1        0.0932
     13 C         145.3994  140.0216  154.9664 C.3     1  UNL1        0.0137
     14 C         147.1669  142.4218  155.0960 C.2     1  UNL1        0.2302
     15 O         148.0766  142.7461  153.9483 O.2     1  UNL1       -0.2744
     16 N         147.0372  143.2069  156.3675 N.am    1  UNL1       -0.2692
     17 C         146.0172  142.5258  157.2310 C.ar    1  UNL1        0.1363
     18 N         145.4798  142.8480  158.5938 N.ar    1  UNL1       -0.1951
     19 C         144.4415  141.9640  159.2187 C.ar    1  UNL1        0.2553
     20 N         143.9407  140.7579  158.4809 N.ar    1  UNL1       -0.1957
     21 C         144.4782  140.4357  157.1181 C.ar    1  UNL1        0.1276
     22 N         143.9774  139.2295  156.3802 N.pl3   1  UNL1       -0.3427
     23 C         145.5164  141.3196  156.4931 C.ar    1  UNL1        0.0484
     24 H         147.5343  144.0256  156.5953 H       1  UNL1        0.1563
     25 H         143.2959  138.6493  156.7904 H       1  UNL1        0.1437
     26 H         144.3302  139.0180  155.4858 H       1  UNL1        0.1437
     27 C         142.2385  144.5383  163.2685 C.3     1  UNL1        0.0762
     28 C         140.7894  144.4205  163.6378 C.ar    1  UNL1        0.0113
     29 C         140.4006  143.9831  165.0189 C.ar    1  UNL1       -0.0017
     30 C         138.9516  143.8653  165.3882 C.ar    1  UNL1       -0.0002
     31 C         137.8914  144.1849  164.3763 C.ar    1  UNL1        0.0023
     32 C         138.2802  144.6223  162.9953 C.ar    1  UNL1        0.0293
     33 C         139.7293  144.7401  162.6260 C.ar    1  UNL1        0.1365
     34 F         140.1181  145.1776  161.2449 F       1  UNL1       -0.2045
@<TRIPOS>BOND
     1    11    12    1
     2    12    13    1
     3    12    14    1
     4    14    15    2
     5    14    16   am
     6    16    17    1
     7    17    18   ar
     8    18    19   ar
     9    19     1    1
    10     1     2   ar
    11     2     3   ar
    12     3    27    1
    13    27    28    1
    14    28    29   ar
    15    29    30   ar
    16    30    31   ar
    17    31    32   ar
    18    32    33   ar
    19    33    34    1
    20     3     4   ar
    21     4     5   ar
    22     5     6   ar
    23     6     7    1
    24     6     8   ar
    25     8     9   ar
    26     9    10   ar
    27    19    20   ar
    28    20    21   ar
    29    21    22    1
    30    21    23   ar
    31    23    12    1
    32    23    17   ar
    33    10     1   ar
    34    33    28   ar
    35    10     4   ar
    36    16    24    1
    37    22    25    1
    38    22    26    1
