@<TRIPOS>MOLECULE
*****
 39 43 0 0 0
SMALL
GASTEIGER

@<TRIPOS>ATOM
      1 C         140.1685  139.7562  159.3472 C.3     1  UNL1        0.1631
      2 N         141.0997  138.7766  158.6965 N.ar    1  UNL1       -0.3047
      3 C         142.4927  138.4510  159.1477 C.ar    1  UNL1        0.1441
      4 N         143.0553  137.4238  158.2104 N.ar    1  UNL1       -0.2267
      5 C         142.0100  137.1147  157.1800 C.ar    1  UNL1        0.1010
      6 C         142.0025  136.1798  156.0070 C.ar    1  UNL1        0.0526
      7 C         140.7865  136.0810  155.1343 C.ar    1  UNL1        0.1690
      8 F         140.7791  135.1461  153.9613 F       1  UNL1       -0.2017
      9 C         139.5779  136.9171  155.4347 C.ar    1  UNL1        0.1689
     10 F         138.3618  136.8183  154.5621 F       1  UNL1       -0.2017
     11 C         139.5853  137.8519  156.6077 C.ar    1  UNL1        0.0507
     12 C         140.8014  137.9507  157.4804 C.ar    1  UNL1        0.0816
     13 C         143.1990  139.0478  160.3287 C.ar    1  UNL1        0.0342
     14 C         143.4511  138.2156  161.5510 C.ar    1  UNL1        0.0039
     15 C         144.1574  138.8124  162.7320 C.ar    1  UNL1        0.0115
     16 C         144.6117  140.2412  162.6908 C.ar    1  UNL1        0.0577
     17 CL        145.3181  140.8380  163.8720 Cl      1  UNL1       -0.0822
     18 C         144.3597  141.0734  161.4686 C.ar    1  UNL1        0.0115
     19 C         143.6534  140.4767  160.2875 C.ar    1  UNL1        0.0039
     20 C         139.8339  141.0451  158.6569 C.3     1  UNL1        0.0297
     21 C         138.4073  141.3709  158.3271 C.3     1  UNL1        0.0024
     22 C         138.0727  142.6599  157.6368 C.3     1  UNL1        0.0001
     23 C         139.1645  143.6231  157.2762 C.3     1  UNL1        0.0000
     24 C         140.5912  143.2974  157.6060 C.3     1  UNL1        0.0001
     25 C         140.9258  142.0084  158.2963 C.3     1  UNL1        0.0024
     26 N         140.2560  139.9134  161.9391 N.am    1  UNL1       -0.2817
     27 C         139.5720  139.4468  160.6883 C.2     1  UNL1        0.2468
     28 O         138.2915  138.6708  160.7786 O.2     1  UNL1       -0.2727
     29 H         141.0965  140.4227  161.8798 H       1  UNL1        0.1549
     30 C         138.4663  138.9852  165.9622 C.ar    1  UNL1        0.0149
     31 C         138.2655  140.3380  165.3461 C.ar    1  UNL1        0.0025
     32 C         138.8622  140.6474  164.0050 C.ar    1  UNL1        0.0156
     33 C         139.6595  139.6040  163.2801 C.ar    1  UNL1        0.0610
     34 C         139.8602  138.2512  163.8962 C.ar    1  UNL1        0.0711
     35 CL        140.6576  137.2077  163.1713 Cl      1  UNL1       -0.0810
     36 C         139.2636  137.9418  165.2372 C.ar    1  UNL1        0.0138
     37 O         136.7467  137.6877  167.4146 O.co2   1  UNL1       -0.5446
     38 C         137.8697  138.6758  167.3032 C.2     1  UNL1        0.0729
     39 O         138.3963  139.3545  168.5329 O.co2   1  UNL1       -0.5446
@<TRIPOS>UNITY_ATOM_ATTR
37 1
charge -1
@<TRIPOS>BOND
     1    37    38   ar
     2    38    39   ar
     3    38    30    1
     4    30    31   ar
     5    31    32   ar
     6    32    33   ar
     7    33    26    1
     8    26    27   am
     9    27    28    2
    10    27     1    1
    11     1    20    1
    12    20    21    1
    13    21    22    1
    14    22    23    1
    15    23    24    1
    16    24    25    1
    17     1     2    1
    18     2     3   ar
    19     3    13    1
    20    13    14   ar
    21    14    15   ar
    22    15    16   ar
    23    16    17    1
    24    16    18   ar
    25    18    19   ar
    26     3     4   ar
    27     4     5   ar
    28     5     6   ar
    29     6     7   ar
    30     7     8    1
    31     7     9   ar
    32     9    10    1
    33     9    11   ar
    34    11    12   ar
    35    33    34   ar
    36    34    35    1
    37    34    36   ar
    38    36    30   ar
    39    25    20    1
    40    12     2   ar
    41    19    13   ar
    42    12     5   ar
    43    26    29    1
@<TRIPOS>MOLECULE
*****
 39 43 0 0 0
SMALL
GASTEIGER

@<TRIPOS>ATOM
      1 C         140.8075  141.6935  159.9610 C.3     1  UNL1        0.1631
      2 N         140.8870  143.1415  159.5778 N.ar    1  UNL1       -0.3047
      3 C         141.5993  144.2179  160.3420 C.ar    1  UNL1        0.1441
      4 N         141.4206  145.5090  159.5996 N.ar    1  UNL1       -0.2267
      5 C         140.5979  145.2305  158.3766 C.ar    1  UNL1        0.1010
      6 C         140.1065  146.1203  157.2735 C.ar    1  UNL1        0.0526
      7 C         139.2853  145.5468  156.1570 C.ar    1  UNL1        0.1690
      8 F         138.7938  146.4366  155.0538 F       1  UNL1       -0.2017
      9 C         138.9554  144.0836  156.1435 C.ar    1  UNL1        0.1689
     10 F         138.1342  143.5101  155.0269 F       1  UNL1       -0.2017
     11 C         139.4468  143.1938  157.2466 C.ar    1  UNL1        0.0507
     12 C         140.2681  143.7673  158.3631 C.ar    1  UNL1        0.0816
     13 C         142.3571  144.0353  161.6235 C.ar    1  UNL1        0.0342
     14 C         141.7573  144.4903  162.9208 C.ar    1  UNL1        0.0039
     15 C         142.5152  144.3077  164.2023 C.ar    1  UNL1        0.0115
     16 C         143.8727  143.6701  164.1865 C.ar    1  UNL1        0.0577
     17 CL        144.6306  143.4874  165.4681 Cl      1  UNL1       -0.0822
     18 C         144.4725  143.2150  162.8891 C.ar    1  UNL1        0.0115
     19 C         143.7148  143.3976  161.6076 C.ar    1  UNL1        0.0039
     20 C         141.4343  140.6501  159.0845 C.3     1  UNL1        0.0297
     21 C         142.8024  140.8748  158.5118 C.3     1  UNL1        0.0024
     22 C         143.4292  139.8314  157.6352 C.3     1  UNL1        0.0001
     23 C         142.6880  138.5633  157.3313 C.3     1  UNL1        0.0000
     24 C         141.3200  138.3384  157.9040 C.3     1  UNL1        0.0001
     25 C         140.6932  139.3819  158.7806 C.3     1  UNL1        0.0024
     26 N         140.8184  140.4700  162.2531 N.am    1  UNL1       -0.2817
     27 C         140.1011  141.2887  161.2210 C.2     1  UNL1        0.2468
     28 O         138.6775  141.7028  161.4488 O.2     1  UNL1       -0.2727
     29 H         141.7528  140.1983  162.1036 H       1  UNL1        0.1549
     30 C         138.6991  139.2562  166.0327 C.ar    1  UNL1        0.0149
     31 C         139.3309  140.6127  165.9296 C.ar    1  UNL1        0.0025
     32 C         140.0373  141.0173  164.6697 C.ar    1  UNL1        0.0156
     33 C         140.1120  140.0654  163.5129 C.ar    1  UNL1        0.0610
     34 C         139.4802  138.7088  163.6160 C.ar    1  UNL1        0.0711
     35 CL        139.5548  137.7568  162.4592 Cl      1  UNL1       -0.0810
     36 C         138.7738  138.3042  164.8758 C.ar    1  UNL1        0.0138
     37 O         138.4125  139.4360  168.6087 O.co2   1  UNL1       -0.5446
     38 C         137.9927  138.8515  167.2925 C.2     1  UNL1        0.0729
     39 O         136.8665  137.8623  167.2362 O.co2   1  UNL1       -0.5446
@<TRIPOS>UNITY_ATOM_ATTR
37 1
charge -1
@<TRIPOS>BOND
     1    37    38   ar
     2    38    39   ar
     3    38    30    1
     4    30    31   ar
     5    31    32   ar
     6    32    33   ar
     7    33    26    1
     8    26    27   am
     9    27    28    2
    10    27     1    1
    11     1    20    1
    12    20    21    1
    13    21    22    1
    14    22    23    1
    15    23    24    1
    16    24    25    1
    17     1     2    1
    18     2     3   ar
    19     3    13    1
    20    13    14   ar
    21    14    15   ar
    22    15    16   ar
    23    16    17    1
    24    16    18   ar
    25    18    19   ar
    26     3     4   ar
    27     4     5   ar
    28     5     6   ar
    29     6     7   ar
    30     7     8    1
    31     7     9   ar
    32     9    10    1
    33     9    11   ar
    34    11    12   ar
    35    33    34   ar
    36    34    35    1
    37    34    36   ar
    38    36    30   ar
    39    25    20    1
    40    12     2   ar
    41    19    13   ar
    42    12     5   ar
    43    26    29    1
@<TRIPOS>MOLECULE
*****
 39 43 0 0 0
SMALL
GASTEIGER

@<TRIPOS>ATOM
      1 C         141.9289  141.8727  162.4983 C.3     1  UNL1        0.1631
      2 N         142.1916  140.8036  161.4794 N.ar    1  UNL1       -0.3047
      3 C         141.6800  139.3944  161.5282 C.ar    1  UNL1        0.1441
      4 N         142.1842  138.6759  160.3118 N.ar    1  UNL1       -0.2267
      5 C         143.0073  139.6411  159.5113 C.ar    1  UNL1        0.1010
      6 C         143.7533  139.4925  158.2185 C.ar    1  UNL1        0.0526
      7 C         144.5039  140.6589  157.6473 C.ar    1  UNL1        0.1690
      8 F         145.2499  140.5102  156.3544 F       1  UNL1       -0.2017
      9 C         144.5085  141.9739  158.3689 C.ar    1  UNL1        0.1689
     10 F         145.2591  143.1402  157.7977 F       1  UNL1       -0.2017
     11 C         143.7625  142.1225  159.6617 C.ar    1  UNL1        0.0507
     12 C         143.0119  140.9561  160.2329 C.ar    1  UNL1        0.0816
     13 C         140.8160  138.8068  162.6044 C.ar    1  UNL1        0.0342
     14 C         141.3954  137.8242  163.5783 C.ar    1  UNL1        0.0039
     15 C         140.5313  137.2366  164.6545 C.ar    1  UNL1        0.0115
     16 C         139.0880  137.6317  164.7568 C.ar    1  UNL1        0.0577
     17 CL        138.2240  137.0441  165.8330 Cl      1  UNL1       -0.0822
     18 C         138.5086  138.6144  163.7828 C.ar    1  UNL1        0.0115
     19 C         139.3725  139.2019  162.7066 C.ar    1  UNL1        0.0039
     20 C         141.3167  143.1757  162.0775 C.3     1  UNL1        0.0297
     21 C         141.4331  144.3801  162.9641 C.3     1  UNL1        0.0024
     22 C         140.8209  145.6832  162.5432 C.3     1  UNL1        0.0001
     23 C         140.0922  145.7819  161.2358 C.3     1  UNL1        0.0000
     24 C         139.9757  144.5775  160.3492 C.3     1  UNL1        0.0001
     25 C         140.5880  143.2745  160.7701 C.3     1  UNL1        0.0024
     26 N         141.2247  141.1761  164.9003 N.am    1  UNL1       -0.2817
     27 C         142.2786  141.6386  163.9382 C.2     1  UNL1        0.2468
     28 O         143.6820  141.8670  164.4159 O.2     1  UNL1       -0.2727
     29 H         140.3036  141.0262  164.5867 H       1  UNL1        0.1549
     30 C         142.2738  140.4739  169.2196 C.ar    1  UNL1        0.0149
     31 C         142.7052  139.4894  168.1734 C.ar    1  UNL1        0.0025
     32 C         142.3555  139.7235  166.7335 C.ar    1  UNL1        0.0156
     33 C         141.5744  140.9421  166.3400 C.ar    1  UNL1        0.0610
     34 C         141.1430  141.9266  167.3862 C.ar    1  UNL1        0.0711
     35 CL        140.3618  143.1452  166.9927 Cl      1  UNL1       -0.0810
     36 C         141.4927  141.6925  168.8260 C.ar    1  UNL1        0.0138
     37 O         141.8435  140.9256  171.7416 O.co2   1  UNL1       -0.5446
     38 C         142.6234  140.2399  170.6593 C.2     1  UNL1        0.0729
     39 O         143.7531  139.3200  171.0168 O.co2   1  UNL1       -0.5446
@<TRIPOS>UNITY_ATOM_ATTR
37 1
charge -1
@<TRIPOS>BOND
     1    37    38   ar
     2    38    39   ar
     3    38    30    1
     4    30    31   ar
     5    31    32   ar
     6    32    33   ar
     7    33    26    1
     8    26    27   am
     9    27    28    2
    10    27     1    1
    11     1    20    1
    12    20    21    1
    13    21    22    1
    14    22    23    1
    15    23    24    1
    16    24    25    1
    17     1     2    1
    18     2     3   ar
    19     3    13    1
    20    13    14   ar
    21    14    15   ar
    22    15    16   ar
    23    16    17    1
    24    16    18   ar
    25    18    19   ar
    26     3     4   ar
    27     4     5   ar
    28     5     6   ar
    29     6     7   ar
    30     7     8    1
    31     7     9   ar
    32     9    10    1
    33     9    11   ar
    34    11    12   ar
    35    33    34   ar
    36    34    35    1
    37    34    36   ar
    38    36    30   ar
    39    25    20    1
    40    12     2   ar
    41    19    13   ar
    42    12     5   ar
    43    26    29    1
@<TRIPOS>MOLECULE
*****
 39 43 0 0 0
SMALL
GASTEIGER

@<TRIPOS>ATOM
      1 C         140.3031  140.3295  161.8188 C.3     1  UNL1        0.1631
      2 N         139.4742  141.0744  160.8147 N.ar    1  UNL1       -0.3047
      3 C         138.7329  142.3552  161.0597 C.ar    1  UNL1        0.1441
      4 N         138.0417  142.7417  159.7858 N.ar    1  UNL1       -0.2267
      5 C         138.3559  141.6998  158.7535 C.ar    1  UNL1        0.1010
      6 C         137.9502  141.5562  157.3166 C.ar    1  UNL1        0.0526
      7 C         138.4298  140.3821  156.5155 C.ar    1  UNL1        0.1690
      8 F         138.0240  140.2386  155.0785 F       1  UNL1       -0.2017
      9 C         139.3151  139.3517  157.1514 C.ar    1  UNL1        0.1689
     10 F         139.7947  138.1777  156.3504 F       1  UNL1       -0.2017
     11 C         139.7209  139.4953  158.5883 C.ar    1  UNL1        0.0507
     12 C         139.2412  140.6693  159.3893 C.ar    1  UNL1        0.0816
     13 C         138.6903  143.1159  162.3518 C.ar    1  UNL1        0.0342
     14 C         137.5124  142.9706  163.2691 C.ar    1  UNL1        0.0039
     15 C         137.4698  143.7313  164.5612 C.ar    1  UNL1        0.0115
     16 C         138.6049  144.6373  164.9359 C.ar    1  UNL1        0.0577
     17 CL        138.5623  145.3980  166.2281 Cl      1  UNL1       -0.0822
     18 C         139.7828  144.7826  164.0186 C.ar    1  UNL1        0.0115
     19 C         139.8255  144.0220  162.7265 C.ar    1  UNL1        0.0039
     20 C         141.5740  139.6573  161.3914 C.3     1  UNL1        0.0297
     21 C         142.7054  140.4732  160.8400 C.3     1  UNL1        0.0024
     22 C         143.9763  139.8008  160.4126 C.3     1  UNL1        0.0001
     23 C         144.1159  138.3125  160.5367 C.3     1  UNL1        0.0000
     24 C         142.9845  137.4965  161.0882 C.3     1  UNL1        0.0001
     25 C         141.7136  138.1689  161.5155 C.3     1  UNL1        0.0024
     26 N         140.7837  140.7067  164.3440 N.am    1  UNL1       -0.2817
     27 C         139.8609  140.2569  163.2503 C.2     1  UNL1        0.2468
     28 O         138.4960  139.7345  163.5882 O.2     1  UNL1       -0.2727
     29 H         141.6795  141.0496  164.1223 H       1  UNL1        0.1549
     30 C         139.4570  140.4886  168.6385 C.ar    1  UNL1        0.0149
     31 C         139.0325  139.4270  167.6676 C.ar    1  UNL1        0.0025
     32 C         139.4748  139.4997  166.2360 C.ar    1  UNL1        0.0156
     33 C         140.3415  140.6341  165.7755 C.ar    1  UNL1        0.0610
     34 C         140.7660  141.6957  166.7465 C.ar    1  UNL1        0.0711
     35 CL        141.6327  142.8300  166.2860 Cl      1  UNL1       -0.0810
     36 C         140.3237  141.6230  168.1779 C.ar    1  UNL1        0.0138
     37 O         139.8502  141.0441  171.1459 O.co2   1  UNL1       -0.5446
     38 C         139.0148  140.4160  170.0700 C.2     1  UNL1        0.0729
     39 O         137.7371  139.7153  170.4255 O.co2   1  UNL1       -0.5446
@<TRIPOS>UNITY_ATOM_ATTR
37 1
charge -1
@<TRIPOS>BOND
     1    37    38   ar
     2    38    39   ar
     3    38    30    1
     4    30    31   ar
     5    31    32   ar
     6    32    33   ar
     7    33    26    1
     8    26    27   am
     9    27    28    2
    10    27     1    1
    11     1    20    1
    12    20    21    1
    13    21    22    1
    14    22    23    1
    15    23    24    1
    16    24    25    1
    17     1     2    1
    18     2     3   ar
    19     3    13    1
    20    13    14   ar
    21    14    15   ar
    22    15    16   ar
    23    16    17    1
    24    16    18   ar
    25    18    19   ar
    26     3     4   ar
    27     4     5   ar
    28     5     6   ar
    29     6     7   ar
    30     7     8    1
    31     7     9   ar
    32     9    10    1
    33     9    11   ar
    34    11    12   ar
    35    33    34   ar
    36    34    35    1
    37    34    36   ar
    38    36    30   ar
    39    25    20    1
    40    12     2   ar
    41    19    13   ar
    42    12     5   ar
    43    26    29    1
@<TRIPOS>MOLECULE
*****
 39 43 0 0 0
SMALL
GASTEIGER

@<TRIPOS>ATOM
      1 C         140.6619  141.1315  164.8555 C.3     1  UNL1        0.1631
      2 N         141.6943  141.6415  165.8168 N.ar    1  UNL1       -0.3047
      3 C         143.0519  142.1674  165.4555 C.ar    1  UNL1        0.1441
      4 N         143.7470  142.5661  166.7236 N.ar    1  UNL1       -0.2267
      5 C         142.8191  142.2865  167.8685 C.ar    1  UNL1        0.1010
      6 C         142.9654  142.4784  169.3489 C.ar    1  UNL1        0.0526
      7 C         141.8431  142.0988  170.2690 C.ar    1  UNL1        0.1690
      8 F         141.9895  142.2908  171.7495 F       1  UNL1       -0.2017
      9 C         140.5745  141.5274  169.7086 C.ar    1  UNL1        0.1689
     10 F         139.4522  141.1479  170.6286 F       1  UNL1       -0.2017
     11 C         140.4282  141.3355  168.2281 C.ar    1  UNL1        0.0507
     12 C         141.5505  141.7150  167.3081 C.ar    1  UNL1        0.0816
     13 C         143.6153  142.2757  164.0696 C.ar    1  UNL1        0.0342
     14 C         143.7989  143.6238  163.4379 C.ar    1  UNL1        0.0039
     15 C         144.3623  143.7321  162.0520 C.ar    1  UNL1        0.0115
     16 C         144.7421  142.4924  161.2978 C.ar    1  UNL1        0.0577
     17 CL        145.3055  142.6008  159.9118 Cl      1  UNL1       -0.0822
     18 C         144.5585  141.1444  161.9295 C.ar    1  UNL1        0.0115
     19 C         143.9951  141.0360  163.3154 C.ar    1  UNL1        0.0039
     20 C         139.9188  139.8637  165.1559 C.3     1  UNL1        0.0297
     21 C         138.6318  139.9129  165.9247 C.3     1  UNL1        0.0024
     22 C         137.8886  138.6450  166.2251 C.3     1  UNL1        0.0001
     23 C         138.4324  137.3279  165.7565 C.3     1  UNL1        0.0000
     24 C         139.7195  137.2787  164.9876 C.3     1  UNL1        0.0001
     25 C         140.4626  138.5466  164.6873 C.3     1  UNL1        0.0024
     26 N         140.5383  141.2197  162.2618 N.am    1  UNL1       -0.2817
     27 C         140.3727  141.8894  163.5937 C.2     1  UNL1        0.2468
     28 O         139.9178  143.3171  163.6639 O.2     1  UNL1       -0.2727
     29 H         140.8369  140.2827  162.2157 H       1  UNL1        0.1549
     30 C         139.6707  143.4937  158.4768 C.ar    1  UNL1        0.0149
     31 C         140.9995  143.6464  159.1556 C.ar    1  UNL1        0.0025
     32 C         141.2887  142.8884  160.4173 C.ar    1  UNL1        0.0156
     33 C         140.2491  141.9776  161.0002 C.ar    1  UNL1        0.0610
     34 C         138.9202  141.8249  160.3213 C.ar    1  UNL1        0.0711
     35 CL        137.8805  140.9142  160.9042 Cl      1  UNL1       -0.0810
     36 C         138.6310  142.5829  159.0597 C.ar    1  UNL1        0.0138
     37 O         140.0709  145.5570  156.9495 O.co2   1  UNL1       -0.5446
     38 C         139.3814  144.2516  157.2151 C.2     1  UNL1        0.0729
     39 O         138.4026  143.7041  156.2191 O.co2   1  UNL1       -0.5446
@<TRIPOS>UNITY_ATOM_ATTR
37 1
charge -1
@<TRIPOS>BOND
     1    37    38   ar
     2    38    39   ar
     3    38    30    1
     4    30    31   ar
     5    31    32   ar
     6    32    33   ar
     7    33    26    1
     8    26    27   am
     9    27    28    2
    10    27     1    1
    11     1    20    1
    12    20    21    1
    13    21    22    1
    14    22    23    1
    15    23    24    1
    16    24    25    1
    17     1     2    1
    18     2     3   ar
    19     3    13    1
    20    13    14   ar
    21    14    15   ar
    22    15    16   ar
    23    16    17    1
    24    16    18   ar
    25    18    19   ar
    26     3     4   ar
    27     4     5   ar
    28     5     6   ar
    29     6     7   ar
    30     7     8    1
    31     7     9   ar
    32     9    10    1
    33     9    11   ar
    34    11    12   ar
    35    33    34   ar
    36    34    35    1
    37    34    36   ar
    38    36    30   ar
    39    25    20    1
    40    12     2   ar
    41    19    13   ar
    42    12     5   ar
    43    26    29    1
@<TRIPOS>MOLECULE
*****
 39 43 0 0 0
SMALL
GASTEIGER

@<TRIPOS>ATOM
      1 C         140.0129  141.7736  162.6117 C.3     1  UNL1        0.1631
      2 N         140.1643  140.6865  161.5893 N.ar    1  UNL1       -0.3047
      3 C         140.9688  139.4307  161.7502 C.ar    1  UNL1        0.1441
      4 N         140.8394  138.6324  160.4869 N.ar    1  UNL1       -0.2267
      5 C         139.9550  139.3948  159.5453 C.ar    1  UNL1        0.1010
      6 C         139.4757  139.0970  158.1555 C.ar    1  UNL1        0.0526
      7 C         138.5791  140.0687  157.4470 C.ar    1  UNL1        0.1690
      8 F         138.0998  139.7709  156.0571 F       1  UNL1       -0.2017
      9 C         138.1618  141.3382  158.1284 C.ar    1  UNL1        0.1689
     10 F         137.2652  142.3099  157.4199 F       1  UNL1       -0.2017
     11 C         138.6411  141.6360  159.5182 C.ar    1  UNL1        0.0507
     12 C         139.5377  140.6643  160.2266 C.ar    1  UNL1        0.0816
     13 C         141.7631  139.0417  162.9616 C.ar    1  UNL1        0.0342
     14 C         143.0607  139.7320  163.2611 C.ar    1  UNL1        0.0039
     15 C         143.8551  139.3429  164.4725 C.ar    1  UNL1        0.0115
     16 C         143.3519  138.2636  165.3844 C.ar    1  UNL1        0.0577
     17 CL        144.1463  137.8745  166.5959 Cl      1  UNL1       -0.0822
     18 C         142.0543  137.5732  165.0850 C.ar    1  UNL1        0.0115
     19 C         141.2599  137.9622  163.8736 C.ar    1  UNL1        0.0039
     20 C         140.0256  143.2115  162.1851 C.3     1  UNL1        0.0297
     21 C         138.9954  144.1617  162.7198 C.3     1  UNL1        0.0024
     22 C         139.0082  145.5996  162.2931 C.3     1  UNL1        0.0001
     23 C         140.0511  146.0875  161.3317 C.3     1  UNL1        0.0000
     24 C         141.0814  145.1374  160.7969 C.3     1  UNL1        0.0001
     25 C         141.0686  143.6994  161.2236 C.3     1  UNL1        0.0024
     26 N         140.8656  141.8819  165.0636 N.am    1  UNL1       -0.2817
     27 C         139.8488  141.4227  164.0609 C.2     1  UNL1        0.2468
     28 O         138.6679  140.6127  164.5074 O.2     1  UNL1       -0.2727
     29 H         141.6406  142.4135  164.7705 H       1  UNL1        0.1549
     30 C         140.3731  140.8290  169.4109 C.ar    1  UNL1        0.0149
     31 C         140.9423  139.8226  168.4553 C.ar    1  UNL1        0.0025
     32 C         141.1065  140.1736  167.0061 C.ar    1  UNL1        0.0156
     33 C         140.7014  141.5310  166.5126 C.ar    1  UNL1        0.0610
     34 C         140.1322  142.5373  167.4682 C.ar    1  UNL1        0.0711
     35 CL        139.7271  143.8947  166.9748 Cl      1  UNL1       -0.0810
     36 C         139.9681  142.1863  168.9173 C.ar    1  UNL1        0.0138
     37 O         139.3871  139.2870  171.2548 O.co2   1  UNL1       -0.5446
     38 C         140.2089  140.4781  170.8600 C.2     1  UNL1        0.0729
     39 O         140.8666  141.3183  171.9142 O.co2   1  UNL1       -0.5446
@<TRIPOS>UNITY_ATOM_ATTR
37 1
charge -1
@<TRIPOS>BOND
     1    37    38   ar
     2    38    39   ar
     3    38    30    1
     4    30    31   ar
     5    31    32   ar
     6    32    33   ar
     7    33    26    1
     8    26    27   am
     9    27    28    2
    10    27     1    1
    11     1    20    1
    12    20    21    1
    13    21    22    1
    14    22    23    1
    15    23    24    1
    16    24    25    1
    17     1     2    1
    18     2     3   ar
    19     3    13    1
    20    13    14   ar
    21    14    15   ar
    22    15    16   ar
    23    16    17    1
    24    16    18   ar
    25    18    19   ar
    26     3     4   ar
    27     4     5   ar
    28     5     6   ar
    29     6     7   ar
    30     7     8    1
    31     7     9   ar
    32     9    10    1
    33     9    11   ar
    34    11    12   ar
    35    33    34   ar
    36    34    35    1
    37    34    36   ar
    38    36    30   ar
    39    25    20    1
    40    12     2   ar
    41    19    13   ar
    42    12     5   ar
    43    26    29    1
@<TRIPOS>MOLECULE
*****
 39 43 0 0 0
SMALL
GASTEIGER

@<TRIPOS>ATOM
      1 C         141.6886  141.0810  162.3377 C.3     1  UNL1        0.1631
      2 N         140.7304  140.0026  162.7488 N.ar    1  UNL1       -0.3047
      3 C         140.2504  138.8737  161.8855 C.ar    1  UNL1        0.1441
      4 N         139.3073  138.0372  162.6984 N.ar    1  UNL1       -0.2267
      5 C         139.2045  138.6491  164.0641 C.ar    1  UNL1        0.1010
      6 C         138.4236  138.2571  165.2833 C.ar    1  UNL1        0.0526
      7 C         138.5222  139.0799  166.5337 C.ar    1  UNL1        0.1690
      8 F         137.7413  138.6878  167.7530 F       1  UNL1       -0.2017
      9 C         139.4017  140.2946  166.5648 C.ar    1  UNL1        0.1689
     10 F         139.5004  141.1173  167.8152 F       1  UNL1       -0.2017
     11 C         140.1826  140.6865  165.3456 C.ar    1  UNL1        0.0507
     12 C         140.0840  139.8638  164.0952 C.ar    1  UNL1        0.0816
     13 C         140.6443  138.6251  160.4597 C.ar    1  UNL1        0.0342
     14 C         142.0858  138.4067  160.1071 C.ar    1  UNL1        0.0039
     15 C         142.4797  138.1580  158.6812 C.ar    1  UNL1        0.0115
     16 C         141.4322  138.1277  157.6081 C.ar    1  UNL1        0.0577
     17 CL        141.8262  137.8791  156.1822 Cl      1  UNL1       -0.0822
     18 C         139.9907  138.3461  157.9608 C.ar    1  UNL1        0.0115
     19 C         139.5967  138.5948  159.3865 C.ar    1  UNL1        0.0039
     20 C         143.0807  141.1000  162.8957 C.3     1  UNL1        0.0297
     21 C         143.8639  142.3792  162.9146 C.3     1  UNL1        0.0024
     22 C         145.2561  142.3981  163.4726 C.3     1  UNL1        0.0001
     23 C         145.8652  141.1378  164.0117 C.3     1  UNL1        0.0000
     24 C         145.0821  139.8585  163.9928 C.3     1  UNL1        0.0001
     25 C         143.6899  139.8396  163.4348 C.3     1  UNL1        0.0024
     26 N         141.7450  142.1071  159.9515 N.am    1  UNL1       -0.2817
     27 C         141.2545  142.1405  161.3686 C.2     1  UNL1        0.2468
     28 O         140.3300  143.2335  161.8167 O.2     1  UNL1       -0.2727
     29 H         142.3518  141.3897  159.6574 H       1  UNL1        0.1549
     30 C         140.4430  145.2857  157.0444 C.ar    1  UNL1        0.0149
     31 C         141.7820  145.3841  157.7132 C.ar    1  UNL1        0.0025
     32 C         142.2160  144.3245  158.6823 C.ar    1  UNL1        0.0156
     33 C         141.3110  143.1665  158.9825 C.ar    1  UNL1        0.0610
     34 C         139.9720  143.0681  158.3136 C.ar    1  UNL1        0.0711
     35 CL        139.0669  141.9102  158.6137 Cl      1  UNL1       -0.0810
     36 C         139.5380  144.1277  157.3446 C.ar    1  UNL1        0.0138
     37 O         139.0076  147.3804  156.4947 O.co2   1  UNL1       -0.5446
     38 C         140.0089  146.3452  156.0754 C.2     1  UNL1        0.0729
     39 O         140.5762  146.3695  154.6870 O.co2   1  UNL1       -0.5446
@<TRIPOS>UNITY_ATOM_ATTR
37 1
charge -1
@<TRIPOS>BOND
     1    37    38   ar
     2    38    39   ar
     3    38    30    1
     4    30    31   ar
     5    31    32   ar
     6    32    33   ar
     7    33    26    1
     8    26    27   am
     9    27    28    2
    10    27     1    1
    11     1    20    1
    12    20    21    1
    13    21    22    1
    14    22    23    1
    15    23    24    1
    16    24    25    1
    17     1     2    1
    18     2     3   ar
    19     3    13    1
    20    13    14   ar
    21    14    15   ar
    22    15    16   ar
    23    16    17    1
    24    16    18   ar
    25    18    19   ar
    26     3     4   ar
    27     4     5   ar
    28     5     6   ar
    29     6     7   ar
    30     7     8    1
    31     7     9   ar
    32     9    10    1
    33     9    11   ar
    34    11    12   ar
    35    33    34   ar
    36    34    35    1
    37    34    36   ar
    38    36    30   ar
    39    25    20    1
    40    12     2   ar
    41    19    13   ar
    42    12     5   ar
    43    26    29    1
@<TRIPOS>MOLECULE
*****
 39 43 0 0 0
SMALL
GASTEIGER

@<TRIPOS>ATOM
      1 C         142.7988  139.2841  158.8119 C.3     1  UNL1        0.1631
      2 N         141.6455  138.6758  158.0704 N.ar    1  UNL1       -0.3047
      3 C         140.2000  139.0404  158.2362 C.ar    1  UNL1        0.1441
      4 N         139.3963  138.1861  157.3013 N.ar    1  UNL1       -0.2267
      5 C         140.3451  137.2935  156.5577 C.ar    1  UNL1        0.1010
      6 C         140.1229  136.2442  155.5091 C.ar    1  UNL1        0.0526
      7 C         141.2908  135.4975  154.9359 C.ar    1  UNL1        0.1690
      8 F         141.0686  134.4482  153.8872 F       1  UNL1       -0.2017
      9 C         142.6809  135.8002  155.4112 C.ar    1  UNL1        0.1689
     10 F         143.8488  135.0536  154.8380 F       1  UNL1       -0.2017
     11 C         142.9031  136.8495  156.4598 C.ar    1  UNL1        0.0507
     12 C         141.7352  137.5961  157.0330 C.ar    1  UNL1        0.0816
     13 C         139.6540  140.0773  159.1726 C.ar    1  UNL1        0.0342
     14 C         138.6706  139.6850  160.2351 C.ar    1  UNL1        0.0039
     15 C         138.1246  140.7218  161.1714 C.ar    1  UNL1        0.0115
     16 C         138.5621  142.1510  161.0453 C.ar    1  UNL1        0.0577
     17 CL        138.0160  143.1879  161.9817 Cl      1  UNL1       -0.0822
     18 C         139.5455  142.5434  159.9828 C.ar    1  UNL1        0.0115
     19 C         140.0915  141.5066  159.0464 C.ar    1  UNL1        0.0039
     20 C         143.6639  140.3101  158.1420 C.3     1  UNL1        0.0297
     21 C         143.9872  141.5942  158.8466 C.3     1  UNL1        0.0024
     22 C         144.8523  142.6202  158.1766 C.3     1  UNL1        0.0001
     23 C         145.3942  142.3621  156.8019 C.3     1  UNL1        0.0000
     24 C         145.0710  141.0780  156.0972 C.3     1  UNL1        0.0001
     25 C         144.2058  140.0520  156.7672 C.3     1  UNL1        0.0024
     26 N         142.6102  139.7109  161.3678 N.am    1  UNL1       -0.2817
     27 C         143.0871  138.8664  160.2235 C.2     1  UNL1        0.2468
     28 O         143.8522  137.6042  160.4908 O.2     1  UNL1       -0.2727
     29 H         142.1081  140.5394  161.1924 H       1  UNL1        0.1549
     30 C         143.4753  138.4577  165.6024 C.ar    1  UNL1        0.0149
     31 C         144.4752  139.2796  164.8443 C.ar    1  UNL1        0.0025
     32 C         144.1868  139.6974  163.4328 C.ar    1  UNL1        0.0156
     33 C         142.8985  139.2932  162.7793 C.ar    1  UNL1        0.0610
     34 C         141.8986  138.4712  163.5373 C.ar    1  UNL1        0.0711
     35 CL        140.6104  138.0670  162.8839 Cl      1  UNL1       -0.0810
     36 C         142.1870  138.0535  164.9488 C.ar    1  UNL1        0.0138
     37 O         144.6955  136.8956  167.2819 O.co2   1  UNL1       -0.5446
     38 C         143.7635  138.0399  167.0139 C.2     1  UNL1        0.0729
     39 O         143.1198  138.7666  168.1573 O.co2   1  UNL1       -0.5446
@<TRIPOS>UNITY_ATOM_ATTR
37 1
charge -1
@<TRIPOS>BOND
     1    37    38   ar
     2    38    39   ar
     3    38    30    1
     4    30    31   ar
     5    31    32   ar
     6    32    33   ar
     7    33    26    1
     8    26    27   am
     9    27    28    2
    10    27     1    1
    11     1    20    1
    12    20    21    1
    13    21    22    1
    14    22    23    1
    15    23    24    1
    16    24    25    1
    17     1     2    1
    18     2     3   ar
    19     3    13    1
    20    13    14   ar
    21    14    15   ar
    22    15    16   ar
    23    16    17    1
    24    16    18   ar
    25    18    19   ar
    26     3     4   ar
    27     4     5   ar
    28     5     6   ar
    29     6     7   ar
    30     7     8    1
    31     7     9   ar
    32     9    10    1
    33     9    11   ar
    34    11    12   ar
    35    33    34   ar
    36    34    35    1
    37    34    36   ar
    38    36    30   ar
    39    25    20    1
    40    12     2   ar
    41    19    13   ar
    42    12     5   ar
    43    26    29    1
@<TRIPOS>MOLECULE
*****
 39 43 0 0 0
SMALL
GASTEIGER

@<TRIPOS>ATOM
      1 C         141.9470  141.2825  160.7879 C.3     1  UNL1        0.1631
      2 N         142.0706  140.0445  159.9502 N.ar    1  UNL1       -0.3047
      3 C         141.5621  138.6805  160.3123 C.ar    1  UNL1        0.1441
      4 N         141.9015  137.7460  159.1891 N.ar    1  UNL1       -0.2267
      5 C         142.6199  138.5324  158.1329 C.ar    1  UNL1        0.1010
      6 C         143.1924  138.1386  156.8036 C.ar    1  UNL1        0.0526
      7 C         143.8693  139.1652  155.9446 C.ar    1  UNL1        0.1690
      8 F         144.4418  138.7712  154.6152 F       1  UNL1       -0.2017
      9 C         143.9738  140.5857  156.4150 C.ar    1  UNL1        0.1689
     10 F         144.6508  141.6123  155.5560 F       1  UNL1       -0.2017
     11 C         143.4013  140.9796  157.7443 C.ar    1  UNL1        0.0507
     12 C         142.7244  139.9530  158.6032 C.ar    1  UNL1        0.0816
     13 C         140.8407  138.3153  161.5757 C.ar    1  UNL1        0.0342
     14 C         141.5837  137.6563  162.6998 C.ar    1  UNL1        0.0039
     15 C         140.8623  137.2910  163.9632 C.ar    1  UNL1        0.0115
     16 C         139.3981  137.5847  164.1025 C.ar    1  UNL1        0.0577
     17 CL        138.6767  137.2194  165.3660 Cl      1  UNL1       -0.0822
     18 C         138.6551  138.2437  162.9783 C.ar    1  UNL1        0.0115
     19 C         139.3763  138.6090  161.7150 C.ar    1  UNL1        0.0039
     20 C         141.3777  142.5365  160.1937 C.3     1  UNL1        0.0297
     21 C         140.1756  142.4641  159.2994 C.3     1  UNL1        0.0024
     22 C         139.6063  143.7182  158.7051 C.3     1  UNL1        0.0001
     23 C         140.2389  145.0447  159.0052 C.3     1  UNL1        0.0000
     24 C         141.4410  145.1172  159.8996 C.3     1  UNL1        0.0001
     25 C         142.0103  143.8631  160.4938 C.3     1  UNL1        0.0024
     26 N         141.4318  141.6415  163.3091 N.am    1  UNL1       -0.2817
     27 C         142.3929  141.2666  162.2201 C.2     1  UNL1        0.2468
     28 O         143.7998  140.8757  162.5633 O.2     1  UNL1       -0.2727
     29 H         140.5084  141.8981  163.0838 H       1  UNL1        0.1549
     30 C         142.7696  141.5935  167.6054 C.ar    1  UNL1        0.0149
     31 C         141.8976  140.4923  167.0790 C.ar    1  UNL1        0.0025
     32 C         141.4517  140.5084  165.6468 C.ar    1  UNL1        0.0156
     33 C         141.8778  141.6256  164.7411 C.ar    1  UNL1        0.0610
     34 C         142.7497  142.7268  165.2675 C.ar    1  UNL1        0.0711
     35 CL        143.1758  143.8440  164.3618 Cl      1  UNL1       -0.0810
     36 C         143.1956  142.7107  166.6996 C.ar    1  UNL1        0.0138
     37 O         143.2463  140.2857  169.7991 O.co2   1  UNL1       -0.5446
     38 C         143.2155  141.5775  169.0375 C.2     1  UNL1        0.0729
     39 O         143.6305  142.8535  169.7079 O.co2   1  UNL1       -0.5446
@<TRIPOS>UNITY_ATOM_ATTR
37 1
charge -1
@<TRIPOS>BOND
     1    37    38   ar
     2    38    39   ar
     3    38    30    1
     4    30    31   ar
     5    31    32   ar
     6    32    33   ar
     7    33    26    1
     8    26    27   am
     9    27    28    2
    10    27     1    1
    11     1    20    1
    12    20    21    1
    13    21    22    1
    14    22    23    1
    15    23    24    1
    16    24    25    1
    17     1     2    1
    18     2     3   ar
    19     3    13    1
    20    13    14   ar
    21    14    15   ar
    22    15    16   ar
    23    16    17    1
    24    16    18   ar
    25    18    19   ar
    26     3     4   ar
    27     4     5   ar
    28     5     6   ar
    29     6     7   ar
    30     7     8    1
    31     7     9   ar
    32     9    10    1
    33     9    11   ar
    34    11    12   ar
    35    33    34   ar
    36    34    35    1
    37    34    36   ar
    38    36    30   ar
    39    25    20    1
    40    12     2   ar
    41    19    13   ar
    42    12     5   ar
    43    26    29    1
