@<TRIPOS>MOLECULE
*****
 35 39 0 0 0
SMALL
GASTEIGER

@<TRIPOS>ATOM
      1 N         140.1043  144.8677  161.8476 N.3     1  UNL1       -0.2689
      2 C         140.8341  145.1954  163.1164 C.3     1  UNL1        0.0724
      3 C         140.7171  144.2876  164.3047 C.3     1  UNL1        0.0175
      4 C         139.8704  143.0520  164.2242 C.3     1  UNL1        0.0060
      5 C         139.1406  142.7244  162.9553 C.3     1  UNL1        0.0175
      6 C         139.2576  143.6322  161.7671 C.3     1  UNL1        0.0724
      7 C         140.6002  143.3797  165.4931 C.3     1  UNL1        0.0217
      8 C         140.4832  142.4719  166.6814 C.3     1  UNL1        0.0937
      9 N         139.6364  141.2364  166.6009 N.am    1  UNL1       -0.2761
     10 C         139.5194  140.3285  167.7893 C.2     1  UNL1        0.2492
     11 O         138.6727  139.0930  167.7087 O.2     1  UNL1       -0.2699
     12 C         138.9066  140.9087  165.3320 C.3     1  UNL1        0.0937
     13 C         139.0236  141.8165  164.1436 C.3     1  UNL1        0.0217
     14 C         140.2492  140.6562  169.0581 C.ar    1  UNL1        0.0579
     15 C         139.7098  141.7059  169.9839 C.ar    1  UNL1        0.0253
     16 C         140.4396  142.0336  171.2527 C.ar    1  UNL1        0.1004
     17 N         141.7088  141.3115  171.5959 N.ar    1  UNL1       -0.2296
     18 C         142.2482  140.2618  170.6701 C.ar    1  UNL1        0.1255
     19 N         143.5174  139.5397  171.0132 N.pl3   1  UNL1       -0.3426
     20 C         141.5184  139.9341  169.4012 C.ar    1  UNL1        0.0384
     21 H         143.9964  139.7548  171.8459 H       1  UNL1        0.1437
     22 H         143.8715  138.8507  170.4055 H       1  UNL1        0.1437
     23 C         140.2213  145.7756  160.6592 C.3     1  UNL1        0.1022
     24 C         143.6337  143.2884  162.1840 C.3     1  UNL1        0.0483
     25 C         143.8056  143.0553  160.7122 C.3     1  UNL1        0.1517
     26 C         144.9407  142.2294  161.2410 C.3     1  UNL1        0.0483
     27 C         144.3716  142.5354  159.4240 C.2     1  UNL1        0.0129
     28 C         143.7429  142.9223  158.1183 C.2     1  UNL1        0.0018
     29 C         142.5482  143.8291  158.1006 C.ar    1  UNL1        0.0335
     30 C         141.9195  144.2159  156.7948 C.ar    1  UNL1        0.0030
     31 C         140.7248  145.1227  156.7772 C.ar    1  UNL1       -0.0001
     32 C         140.1587  145.6426  158.0653 C.ar    1  UNL1        0.0001
     33 C         140.7874  145.2557  159.3711 C.ar    1  UNL1        0.0279
     34 C         141.9822  144.3489  159.3887 C.ar    1  UNL1        0.1358
     35 O         142.6109  143.9620  160.6945 O.3     1  UNL1       -0.4788
@<TRIPOS>BOND
     1    24    25    1
     2    25    26    1
     3    25    27    1
     4    27    28    2
     5    28    29    1
     6    29    30   ar
     7    30    31   ar
     8    31    32   ar
     9    32    33   ar
    10    33    23    1
    11    23     1    1
    12     1     2    1
    13     2     3    1
    14     3     4    1
    15     4     5    1
    16     5     6    1
    17     4     7    1
    18     7     8    1
    19     8     9    1
    20     9    10   am
    21    10    11    2
    22    10    14    1
    23    14    15   ar
    24    15    16   ar
    25    16    17   ar
    26    17    18   ar
    27    18    19    1
    28    18    20   ar
    29     9    12    1
    30    12    13    1
    31    33    34   ar
    32    34    35    1
    33    35    25    1
    34    34    29   ar
    35     6     1    1
    36    20    14   ar
    37    13     4    1
    38    19    21    1
    39    19    22    1
@<TRIPOS>MOLECULE
*****
 35 39 0 0 0
SMALL
GASTEIGER

@<TRIPOS>ATOM
      1 N         140.3325  144.4131  161.5972 N.3     1  UNL1       -0.2689
      2 C         141.0922  144.7751  162.8389 C.3     1  UNL1        0.0724
      3 C         140.9228  143.9594  164.0863 C.3     1  UNL1        0.0175
      4 C         139.9937  142.7818  164.0919 C.3     1  UNL1        0.0060
      5 C         139.2340  142.4199  162.8502 C.3     1  UNL1        0.0175
      6 C         139.4034  143.2355  161.6029 C.3     1  UNL1        0.0724
      7 C         140.7534  143.1437  165.3337 C.3     1  UNL1        0.0217
      8 C         140.5840  142.3280  166.5810 C.3     1  UNL1        0.0937
      9 N         139.6549  141.1504  166.5867 N.am    1  UNL1       -0.2761
     10 C         139.4856  140.3347  167.8341 C.2     1  UNL1        0.2492
     11 O         138.5565  139.1571  167.8398 O.2     1  UNL1       -0.2699
     12 C         138.8952  140.7885  165.3450 C.3     1  UNL1        0.0937
     13 C         139.0646  141.6042  164.0976 C.3     1  UNL1        0.0217
     14 C         140.2453  140.6966  169.0758 C.ar    1  UNL1        0.0579
     15 C         139.7488  141.7984  169.9644 C.ar    1  UNL1        0.0253
     16 C         140.5086  142.1603  171.2061 C.ar    1  UNL1        0.1004
     17 N         141.7647  141.4204  171.5592 N.ar    1  UNL1       -0.2296
     18 C         142.2612  140.3186  170.6706 C.ar    1  UNL1        0.1255
     19 N         143.5173  139.5788  171.0237 N.pl3   1  UNL1       -0.3426
     20 C         141.5014  139.9567  169.4289 C.ar    1  UNL1        0.0384
     21 H         144.0159  139.8163  171.8387 H       1  UNL1        0.1437
     22 H         143.8431  138.8556  170.4405 H       1  UNL1        0.1437
     23 C         140.5019  145.2288  160.3498 C.3     1  UNL1        0.1022
     24 C         138.9046  147.6532  156.9254 C.3     1  UNL1        0.0483
     25 C         139.9342  146.8477  156.1896 C.3     1  UNL1        0.1517
     26 C         139.3874  147.6671  155.0584 C.3     1  UNL1        0.0483
     27 C         140.7738  146.3267  155.0611 C.2     1  UNL1        0.0129
     28 C         141.8026  145.2662  155.3193 C.2     1  UNL1        0.0018
     29 C         141.9919  144.7265  156.7060 C.ar    1  UNL1        0.0335
     30 C         143.0207  143.6660  156.9641 C.ar    1  UNL1        0.0030
     31 C         143.2100  143.1263  158.3508 C.ar    1  UNL1       -0.0001
     32 C         142.3703  143.6473  159.4794 C.ar    1  UNL1        0.0001
     33 C         141.3415  144.7079  159.2213 C.ar    1  UNL1        0.0279
     34 C         141.1523  145.2475  157.8345 C.ar    1  UNL1        0.1358
     35 O         140.1234  146.3081  157.5763 O.3     1  UNL1       -0.4788
@<TRIPOS>BOND
     1    24    25    1
     2    25    26    1
     3    25    27    1
     4    27    28    2
     5    28    29    1
     6    29    30   ar
     7    30    31   ar
     8    31    32   ar
     9    32    33   ar
    10    33    23    1
    11    23     1    1
    12     1     2    1
    13     2     3    1
    14     3     4    1
    15     4     5    1
    16     5     6    1
    17     4     7    1
    18     7     8    1
    19     8     9    1
    20     9    10   am
    21    10    11    2
    22    10    14    1
    23    14    15   ar
    24    15    16   ar
    25    16    17   ar
    26    17    18   ar
    27    18    19    1
    28    18    20   ar
    29     9    12    1
    30    12    13    1
    31    33    34   ar
    32    34    35    1
    33    35    25    1
    34    34    29   ar
    35     6     1    1
    36    20    14   ar
    37    13     4    1
    38    19    21    1
    39    19    22    1
@<TRIPOS>MOLECULE
*****
 35 39 0 0 0
SMALL
GASTEIGER

@<TRIPOS>ATOM
      1 N         142.6525  138.1669  161.5666 N.3     1  UNL1       -0.2689
      2 C         143.3766  139.0352  162.5524 C.3     1  UNL1        0.0724
      3 C         142.7384  139.3694  163.8680 C.3     1  UNL1        0.0175
      4 C         141.3761  138.8353  164.1979 C.3     1  UNL1        0.0060
      5 C         140.6520  137.9671  163.2122 C.3     1  UNL1        0.0175
      6 C         141.2902  137.6329  161.8966 C.3     1  UNL1        0.0724
      7 C         142.1003  139.7036  165.1837 C.3     1  UNL1        0.0217
      8 C         141.4621  140.0378  166.4994 C.3     1  UNL1        0.0937
      9 N         140.0998  139.5038  166.8293 N.am    1  UNL1       -0.2761
     10 C         139.4616  139.8380  168.1451 C.2     1  UNL1        0.2492
     11 O         138.0993  139.3040  168.4750 O.2     1  UNL1       -0.2699
     12 C         139.3756  138.6355  165.8436 C.3     1  UNL1        0.0937
     13 C         140.0138  138.3013  164.5279 C.3     1  UNL1        0.0217
     14 C         140.1857  140.7063  169.1308 C.ar    1  UNL1        0.0579
     15 C         141.1831  140.1003  170.0731 C.ar    1  UNL1        0.0253
     16 C         141.9073  140.9686  171.0588 C.ar    1  UNL1        0.1004
     17 N         141.6340  142.4429  171.1023 N.ar    1  UNL1       -0.2296
     18 C         140.6366  143.0489  170.1599 C.ar    1  UNL1        0.1255
     19 N         140.3633  144.5231  170.2033 N.pl3   1  UNL1       -0.3426
     20 C         139.9124  142.1805  169.1742 C.ar    1  UNL1        0.0384
     21 H         140.8386  145.0930  170.8503 H       1  UNL1        0.1437
     22 H         139.7087  144.9208  169.5849 H       1  UNL1        0.1437
     23 C         143.2907  137.8327  160.2509 C.3     1  UNL1        0.1022
     24 C         143.5103  134.2098  157.6086 C.3     1  UNL1        0.0483
     25 C         142.9060  135.1795  156.6367 C.3     1  UNL1        0.1517
     26 C         142.9877  133.9583  155.7695 C.3     1  UNL1        0.0483
     27 C         142.3301  135.7251  155.3637 C.2     1  UNL1        0.0129
     28 C         141.8824  137.1551  155.2954 C.2     1  UNL1        0.0018
     29 C         142.0106  138.0395  156.5001 C.ar    1  UNL1        0.0335
     30 C         141.5629  139.4695  156.4318 C.ar    1  UNL1        0.0030
     31 C         141.6911  140.3539  157.6365 C.ar    1  UNL1       -0.0001
     32 C         142.2670  139.8083  158.9096 C.ar    1  UNL1        0.0001
     33 C         142.7147  138.3783  158.9779 C.ar    1  UNL1        0.0279
     34 C         142.5865  137.4939  157.7731 C.ar    1  UNL1        0.1358
     35 O         143.0342  136.0639  157.8414 O.3     1  UNL1       -0.4788
@<TRIPOS>BOND
     1    24    25    1
     2    25    26    1
     3    25    27    1
     4    27    28    2
     5    28    29    1
     6    29    30   ar
     7    30    31   ar
     8    31    32   ar
     9    32    33   ar
    10    33    23    1
    11    23     1    1
    12     1     2    1
    13     2     3    1
    14     3     4    1
    15     4     5    1
    16     5     6    1
    17     4     7    1
    18     7     8    1
    19     8     9    1
    20     9    10   am
    21    10    11    2
    22    10    14    1
    23    14    15   ar
    24    15    16   ar
    25    16    17   ar
    26    17    18   ar
    27    18    19    1
    28    18    20   ar
    29     9    12    1
    30    12    13    1
    31    33    34   ar
    32    34    35    1
    33    35    25    1
    34    34    29   ar
    35     6     1    1
    36    20    14   ar
    37    13     4    1
    38    19    21    1
    39    19    22    1
@<TRIPOS>MOLECULE
*****
 35 39 0 0 0
SMALL
GASTEIGER

@<TRIPOS>ATOM
      1 N         139.0362  141.5667  160.4058 N.3     1  UNL1       -0.2689
      2 C         138.5923  140.2021  159.9687 C.3     1  UNL1        0.0724
      3 C         139.4979  139.3527  159.1271 C.3     1  UNL1        0.0175
      4 C         140.8474  139.8678  158.7226 C.3     1  UNL1        0.0060
      5 C         141.2912  141.2324  159.1596 C.3     1  UNL1        0.0175
      6 C         140.3856  142.0818  160.0012 C.3     1  UNL1        0.0724
      7 C         140.4036  138.5032  158.2855 C.3     1  UNL1        0.0217
      8 C         141.3092  137.6538  157.4439 C.3     1  UNL1        0.0937
      9 N         142.6586  138.1689  157.0393 N.am    1  UNL1       -0.2761
     10 C         143.5642  137.3195  156.1977 C.2     1  UNL1        0.2492
     11 O         144.9136  137.8346  155.7931 O.2     1  UNL1       -0.2699
     12 C         143.1024  139.5335  157.4763 C.3     1  UNL1        0.0937
     13 C         142.1968  140.3830  158.3180 C.3     1  UNL1        0.0217
     14 C         143.1204  135.9549  155.7606 C.ar    1  UNL1        0.0579
     15 C         142.5387  135.7580  154.3921 C.ar    1  UNL1        0.0253
     16 C         142.0949  134.3934  153.9551 C.ar    1  UNL1        0.1004
     17 N         142.2327  133.2258  154.8866 N.ar    1  UNL1       -0.2296
     18 C         142.8144  133.4227  156.2551 C.ar    1  UNL1        0.1255
     19 N         142.9522  132.2552  157.1866 N.pl3   1  UNL1       -0.3426
     20 C         143.2582  134.7874  156.6921 C.ar    1  UNL1        0.0384
     21 H         142.6609  131.3596  156.8998 H       1  UNL1        0.1437
     22 H         143.3340  132.3845  158.0848 H       1  UNL1        0.1437
     23 C         138.1305  142.4162  161.2474 C.3     1  UNL1        0.1022
     24 C         138.6176  138.4154  163.2254 C.3     1  UNL1        0.0483
     25 C         138.9908  139.3001  164.3779 C.3     1  UNL1        0.1517
     26 C         139.1479  137.9541  165.0212 C.3     1  UNL1        0.0483
     27 C         139.4185  139.7173  165.7537 C.2     1  UNL1        0.0129
     28 C         139.5595  141.1732  166.0861 C.2     1  UNL1        0.0018
     29 C         139.2728  142.2119  165.0426 C.ar    1  UNL1        0.0335
     30 C         139.4138  143.6678  165.3750 C.ar    1  UNL1        0.0030
     31 C         139.1270  144.7065  164.3315 C.ar    1  UNL1       -0.0001
     32 C         138.6993  144.2893  162.9556 C.ar    1  UNL1        0.0001
     33 C         138.5583  142.8334  162.6232 C.ar    1  UNL1        0.0279
     34 C         138.8450  141.7947  163.6668 C.ar    1  UNL1        0.1358
     35 O         138.7040  140.3388  163.3344 O.3     1  UNL1       -0.4788
@<TRIPOS>BOND
     1    24    25    1
     2    25    26    1
     3    25    27    1
     4    27    28    2
     5    28    29    1
     6    29    30   ar
     7    30    31   ar
     8    31    32   ar
     9    32    33   ar
    10    33    23    1
    11    23     1    1
    12     1     2    1
    13     2     3    1
    14     3     4    1
    15     4     5    1
    16     5     6    1
    17     4     7    1
    18     7     8    1
    19     8     9    1
    20     9    10   am
    21    10    11    2
    22    10    14    1
    23    14    15   ar
    24    15    16   ar
    25    16    17   ar
    26    17    18   ar
    27    18    19    1
    28    18    20   ar
    29     9    12    1
    30    12    13    1
    31    33    34   ar
    32    34    35    1
    33    35    25    1
    34    34    29   ar
    35     6     1    1
    36    20    14   ar
    37    13     4    1
    38    19    21    1
    39    19    22    1
@<TRIPOS>MOLECULE
*****
 35 39 0 0 0
SMALL
GASTEIGER

@<TRIPOS>ATOM
      1 N         140.2160  138.5866  160.8104 N.3     1  UNL1       -0.2689
      2 C         141.3008  139.2860  161.5745 C.3     1  UNL1        0.0724
      3 C         141.1385  139.5408  163.0438 C.3     1  UNL1        0.0175
      4 C         139.8914  139.0962  163.7488 C.3     1  UNL1        0.0060
      5 C         138.8066  138.3967  162.9846 C.3     1  UNL1        0.0175
      6 C         138.9690  138.1419  161.5154 C.3     1  UNL1        0.0724
      7 C         140.9762  139.7957  164.5131 C.3     1  UNL1        0.0217
      8 C         140.8138  140.0505  165.9823 C.3     1  UNL1        0.0937
      9 N         139.5667  139.6058  166.6873 N.am    1  UNL1       -0.2761
     10 C         139.4044  139.8607  168.1567 C.2     1  UNL1        0.2492
     11 O         138.1574  139.4160  168.8617 O.2     1  UNL1       -0.2699
     12 C         138.4820  138.9064  165.9231 C.3     1  UNL1        0.0937
     13 C         138.6443  138.6515  164.4538 C.3     1  UNL1        0.0217
     14 C         140.4892  140.5601  168.9208 C.ar    1  UNL1        0.0579
     15 C         140.5479  142.0589  168.9379 C.ar    1  UNL1        0.0253
     16 C         141.6326  142.7583  169.7021 C.ar    1  UNL1        0.1004
     17 N         142.6588  141.9590  170.4493 N.ar    1  UNL1       -0.2296
     18 C         142.6001  140.4602  170.4322 C.ar    1  UNL1        0.1255
     19 N         143.6262  139.6609  171.1794 N.pl3   1  UNL1       -0.3426
     20 C         141.5153  139.7608  169.6680 C.ar    1  UNL1        0.0384
     21 H         144.3381  140.1200  171.6809 H       1  UNL1        0.1437
     22 H         143.5876  138.6772  171.1682 H       1  UNL1        0.1437
     23 C         140.3783  138.3317  159.3410 C.3     1  UNL1        0.1022
     24 C         142.8863  135.5722  156.8409 C.3     1  UNL1        0.0483
     25 C         143.3345  136.8857  156.2718 C.3     1  UNL1        0.1517
     26 C         144.1643  135.9475  155.4464 C.3     1  UNL1        0.0483
     27 C         144.0709  137.8734  155.4162 C.2     1  UNL1        0.0129
     28 C         143.8219  139.3431  155.5836 C.2     1  UNL1        0.0018
     29 C         142.8365  139.8251  156.6066 C.ar    1  UNL1        0.0335
     30 C         142.5875  141.2948  156.7740 C.ar    1  UNL1        0.0030
     31 C         141.6022  141.7768  157.7971 C.ar    1  UNL1       -0.0001
     32 C         140.8657  140.7891  158.6528 C.ar    1  UNL1        0.0001
     33 C         141.1147  139.3194  158.4854 C.ar    1  UNL1        0.0279
     34 C         142.1002  138.8374  157.4623 C.ar    1  UNL1        0.1358
     35 O         142.3492  137.3677  157.2949 O.3     1  UNL1       -0.4788
@<TRIPOS>BOND
     1    24    25    1
     2    25    26    1
     3    25    27    1
     4    27    28    2
     5    28    29    1
     6    29    30   ar
     7    30    31   ar
     8    31    32   ar
     9    32    33   ar
    10    33    23    1
    11    23     1    1
    12     1     2    1
    13     2     3    1
    14     3     4    1
    15     4     5    1
    16     5     6    1
    17     4     7    1
    18     7     8    1
    19     8     9    1
    20     9    10   am
    21    10    11    2
    22    10    14    1
    23    14    15   ar
    24    15    16   ar
    25    16    17   ar
    26    17    18   ar
    27    18    19    1
    28    18    20   ar
    29     9    12    1
    30    12    13    1
    31    33    34   ar
    32    34    35    1
    33    35    25    1
    34    34    29   ar
    35     6     1    1
    36    20    14   ar
    37    13     4    1
    38    19    21    1
    39    19    22    1
@<TRIPOS>MOLECULE
*****
 35 39 0 0 0
SMALL
GASTEIGER

@<TRIPOS>ATOM
      1 N         143.5187  140.0518  160.9812 N.3     1  UNL1       -0.2689
      2 C         143.0246  141.2659  161.7103 C.3     1  UNL1        0.0724
      3 C         142.8555  141.2288  163.2003 C.3     1  UNL1        0.0175
      4 C         143.1806  139.9777  163.9611 C.3     1  UNL1        0.0060
      5 C         143.6747  138.7636  163.2320 C.3     1  UNL1        0.0175
      6 C         143.8438  138.8006  161.7420 C.3     1  UNL1        0.0724
      7 C         142.6864  141.1918  164.6903 C.3     1  UNL1        0.0217
      8 C         142.5173  141.1548  166.1802 C.3     1  UNL1        0.0937
      9 N         142.8424  139.9036  166.9411 N.am    1  UNL1       -0.2761
     10 C         142.6733  139.8666  168.4311 C.2     1  UNL1        0.2492
     11 O         142.9983  138.6154  169.1919 O.2     1  UNL1       -0.2699
     12 C         143.3365  138.6895  166.2120 C.3     1  UNL1        0.0937
     13 C         143.5057  138.7265  164.7219 C.3     1  UNL1        0.0217
     14 C         142.1791  141.0807  169.1602 C.ar    1  UNL1        0.0579
     15 C         140.7102  141.3811  169.2073 C.ar    1  UNL1        0.0253
     16 C         140.2161  142.5952  169.9365 C.ar    1  UNL1        0.1004
     17 N         141.1907  143.5090  170.6185 N.ar    1  UNL1       -0.2296
     18 C         142.6596  143.2085  170.5714 C.ar    1  UNL1        0.1255
     19 N         143.6343  144.1222  171.2534 N.pl3   1  UNL1       -0.3426
     20 C         143.1537  141.9943  169.8422 C.ar    1  UNL1        0.0384
     21 H         143.3099  144.9191  171.7320 H       1  UNL1        0.1437
     22 H         144.5983  143.9250  171.2225 H       1  UNL1        0.1437
     23 C         143.6878  140.0888  159.4912 C.3     1  UNL1        0.1022
     24 C         145.7977  140.2241  155.5306 C.3     1  UNL1        0.0483
     25 C         144.5195  139.5681  155.0995 C.3     1  UNL1        0.1517
     26 C         145.2406  139.6223  153.7853 C.3     1  UNL1        0.0483
     27 C         143.4917  138.9309  154.2120 C.2     1  UNL1        0.0129
     28 C         142.1868  138.4673  154.7883 C.2     1  UNL1        0.0018
     29 C         141.9096  138.6408  156.2522 C.ar    1  UNL1        0.0335
     30 C         140.6046  138.1772  156.8285 C.ar    1  UNL1        0.0030
     31 C         140.3274  138.3508  158.2924 C.ar    1  UNL1       -0.0001
     32 C         141.3552  138.9880  159.1800 C.ar    1  UNL1        0.0001
     33 C         142.6601  139.4516  158.6037 C.ar    1  UNL1        0.0279
     34 C         142.9373  139.2780  157.1397 C.ar    1  UNL1        0.1358
     35 O         144.2422  139.7416  156.5633 O.3     1  UNL1       -0.4788
@<TRIPOS>BOND
     1    24    25    1
     2    25    26    1
     3    25    27    1
     4    27    28    2
     5    28    29    1
     6    29    30   ar
     7    30    31   ar
     8    31    32   ar
     9    32    33   ar
    10    33    23    1
    11    23     1    1
    12     1     2    1
    13     2     3    1
    14     3     4    1
    15     4     5    1
    16     5     6    1
    17     4     7    1
    18     7     8    1
    19     8     9    1
    20     9    10   am
    21    10    11    2
    22    10    14    1
    23    14    15   ar
    24    15    16   ar
    25    16    17   ar
    26    17    18   ar
    27    18    19    1
    28    18    20   ar
    29     9    12    1
    30    12    13    1
    31    33    34   ar
    32    34    35    1
    33    35    25    1
    34    34    29   ar
    35     6     1    1
    36    20    14   ar
    37    13     4    1
    38    19    21    1
    39    19    22    1
@<TRIPOS>MOLECULE
*****
 35 39 0 0 0
SMALL
GASTEIGER

@<TRIPOS>ATOM
      1 N         142.0550  140.4564  160.7174 N.3     1  UNL1       -0.2689
      2 C         141.5345  141.5396  161.6150 C.3     1  UNL1        0.0724
      3 C         141.6455  141.3975  163.1041 C.3     1  UNL1        0.0175
      4 C         142.2770  140.1722  163.6956 C.3     1  UNL1        0.0060
      5 C         142.7975  139.0890  162.7980 C.3     1  UNL1        0.0175
      6 C         142.6864  139.2311  161.3089 C.3     1  UNL1        0.0724
      7 C         141.7565  141.2555  164.5933 C.3     1  UNL1        0.0217
      8 C         141.8675  141.1134  166.0824 C.3     1  UNL1        0.0937
      9 N         142.4990  139.8880  166.6739 N.am    1  UNL1       -0.2761
     10 C         142.6100  139.7460  168.1630 C.2     1  UNL1        0.2492
     11 O         143.2415  138.5207  168.7545 O.2     1  UNL1       -0.2699
     12 C         143.0195  138.8048  165.7763 C.3     1  UNL1        0.0937
     13 C         142.9085  138.9469  164.2871 C.3     1  UNL1        0.0217
     14 C         142.0895  140.8292  169.0606 C.ar    1  UNL1        0.0579
     15 C         140.6231  140.9106  169.3654 C.ar    1  UNL1        0.0253
     16 C         140.1026  141.9938  170.2630 C.ar    1  UNL1        0.1004
     17 N         141.0486  142.9957  170.8559 N.ar    1  UNL1       -0.2296
     18 C         142.5151  142.9143  170.5511 C.ar    1  UNL1        0.1255
     19 N         143.4610  143.9161  171.1439 N.pl3   1  UNL1       -0.3426
     20 C         143.0355  141.8310  169.6535 C.ar    1  UNL1        0.0384
     21 H         143.1194  144.6270  171.7331 H       1  UNL1        0.1437
     22 H         144.4235  143.8626  170.9439 H       1  UNL1        0.1437
     23 C         141.9440  140.5985  159.2282 C.3     1  UNL1        0.1022
     24 C         142.0938  137.0622  156.4664 C.3     1  UNL1        0.0483
     25 C         143.2976  137.8063  155.9692 C.3     1  UNL1        0.1517
     26 C         143.3307  136.6172  155.0555 C.3     1  UNL1        0.0483
     27 C         144.5129  138.1375  155.1547 C.2     1  UNL1        0.0129
     28 C         145.2770  139.3993  155.4266 C.2     1  UNL1        0.0018
     29 C         144.8258  140.3300  156.5129 C.ar    1  UNL1        0.0335
     30 C         145.5899  141.5919  156.7848 C.ar    1  UNL1        0.0030
     31 C         145.1387  142.5226  157.8711 C.ar    1  UNL1       -0.0001
     32 C         143.9233  142.1915  158.6856 C.ar    1  UNL1        0.0001
     33 C         143.1592  140.9296  158.4138 C.ar    1  UNL1        0.0279
     34 C         143.6105  139.9989  157.3274 C.ar    1  UNL1        0.1358
     35 O         142.8464  138.7371  157.0555 O.3     1  UNL1       -0.4788
@<TRIPOS>BOND
     1    24    25    1
     2    25    26    1
     3    25    27    1
     4    27    28    2
     5    28    29    1
     6    29    30   ar
     7    30    31   ar
     8    31    32   ar
     9    32    33   ar
    10    33    23    1
    11    23     1    1
    12     1     2    1
    13     2     3    1
    14     3     4    1
    15     4     5    1
    16     5     6    1
    17     4     7    1
    18     7     8    1
    19     8     9    1
    20     9    10   am
    21    10    11    2
    22    10    14    1
    23    14    15   ar
    24    15    16   ar
    25    16    17   ar
    26    17    18   ar
    27    18    19    1
    28    18    20   ar
    29     9    12    1
    30    12    13    1
    31    33    34   ar
    32    34    35    1
    33    35    25    1
    34    34    29   ar
    35     6     1    1
    36    20    14   ar
    37    13     4    1
    38    19    21    1
    39    19    22    1
@<TRIPOS>MOLECULE
*****
 35 39 0 0 0
SMALL
GASTEIGER

@<TRIPOS>ATOM
      1 N         138.4897  140.2750  160.4364 N.3     1  UNL1       -0.2689
      2 C         137.7289  140.8823  161.5776 C.3     1  UNL1        0.0724
      3 C         138.3334  140.9130  162.9500 C.3     1  UNL1        0.0175
      4 C         139.6987  140.3364  163.1813 C.3     1  UNL1        0.0060
      5 C         140.4595  139.7292  162.0401 C.3     1  UNL1        0.0175
      6 C         139.8550  139.6985  160.6677 C.3     1  UNL1        0.0724
      7 C         138.9379  140.9438  164.3225 C.3     1  UNL1        0.0217
      8 C         139.5424  140.9744  165.6950 C.3     1  UNL1        0.0937
      9 N         140.9077  140.3979  165.9262 N.am    1  UNL1       -0.2761
     10 C         141.5122  140.4286  167.2987 C.2     1  UNL1        0.2492
     11 O         142.8775  139.8520  167.5299 O.2     1  UNL1       -0.2699
     12 C         141.6685  139.7906  164.7850 C.3     1  UNL1        0.0937
     13 C         141.0640  139.7598  163.4125 C.3     1  UNL1        0.0217
     14 C         140.7514  141.0359  168.4399 C.ar    1  UNL1        0.0579
     15 C         139.8249  140.1875  169.2595 C.ar    1  UNL1        0.0253
     16 C         139.0641  140.7948  170.4007 C.ar    1  UNL1        0.1004
     17 N         139.2298  142.2505  170.7223 N.ar    1  UNL1       -0.2296
     18 C         140.1563  143.0989  169.9027 C.ar    1  UNL1        0.1255
     19 N         140.3221  144.5546  170.2243 N.pl3   1  UNL1       -0.3426
     20 C         140.9172  142.4916  168.7615 C.ar    1  UNL1        0.0384
     21 H         139.8227  144.9532  170.9733 H       1  UNL1        0.1437
     22 H         140.9302  145.1114  169.6863 H       1  UNL1        0.1437
     23 C         137.8852  140.2443  159.0639 C.3     1  UNL1        0.1022
     24 C         134.3707  139.8124  156.3039 C.3     1  UNL1        0.0483
     25 C         135.0352  140.9949  155.6633 C.3     1  UNL1        0.1517
     26 C         133.8545  140.8344  154.7522 C.3     1  UNL1        0.0483
     27 C         135.2897  142.1215  154.7063 C.2     1  UNL1        0.0129
     28 C         136.4940  142.9980  154.8829 C.2     1  UNL1        0.0018
     29 C         137.4440  142.7479  156.0164 C.ar    1  UNL1        0.0335
     30 C         138.6484  143.6244  156.1930 C.ar    1  UNL1        0.0030
     31 C         139.5984  143.3742  157.3265 C.ar    1  UNL1       -0.0001
     32 C         139.3440  142.2475  158.2835 C.ar    1  UNL1        0.0001
     33 C         138.1396  141.3710  158.1070 C.ar    1  UNL1        0.0279
     34 C         137.1896  141.6212  156.9734 C.ar    1  UNL1        0.1358
     35 O         135.9852  140.7447  156.7968 O.3     1  UNL1       -0.4788
@<TRIPOS>BOND
     1    24    25    1
     2    25    26    1
     3    25    27    1
     4    27    28    2
     5    28    29    1
     6    29    30   ar
     7    30    31   ar
     8    31    32   ar
     9    32    33   ar
    10    33    23    1
    11    23     1    1
    12     1     2    1
    13     2     3    1
    14     3     4    1
    15     4     5    1
    16     5     6    1
    17     4     7    1
    18     7     8    1
    19     8     9    1
    20     9    10   am
    21    10    11    2
    22    10    14    1
    23    14    15   ar
    24    15    16   ar
    25    16    17   ar
    26    17    18   ar
    27    18    19    1
    28    18    20   ar
    29     9    12    1
    30    12    13    1
    31    33    34   ar
    32    34    35    1
    33    35    25    1
    34    34    29   ar
    35     6     1    1
    36    20    14   ar
    37    13     4    1
    38    19    21    1
    39    19    22    1
@<TRIPOS>MOLECULE
*****
 35 39 0 0 0
SMALL
GASTEIGER

@<TRIPOS>ATOM
      1 N         142.9795  141.2179  166.0500 N.3     1  UNL1       -0.2689
      2 C         143.7051  140.3362  165.0772 C.3     1  UNL1        0.0724
      3 C         143.7980  140.7303  163.6329 C.3     1  UNL1        0.0175
      4 C         143.1654  142.0060  163.1614 C.3     1  UNL1        0.0060
      5 C         142.4398  142.8877  164.1341 C.3     1  UNL1        0.0175
      6 C         142.3469  142.4936  165.5784 C.3     1  UNL1        0.0724
      7 C         143.8909  141.1244  162.1885 C.3     1  UNL1        0.0217
      8 C         143.9838  141.5184  160.7443 C.3     1  UNL1        0.0937
      9 N         143.3512  142.7942  160.2727 N.am    1  UNL1       -0.2761
     10 C         143.4442  143.1882  158.8283 C.2     1  UNL1        0.2492
     11 O         142.8116  144.4639  158.3568 O.2     1  UNL1       -0.2699
     12 C         142.6257  143.6758  161.2455 C.3     1  UNL1        0.0937
     13 C         142.5328  143.2818  162.6898 C.3     1  UNL1        0.0217
     14 C         144.1697  142.3066  157.8556 C.ar    1  UNL1        0.0579
     15 C         145.5952  142.6022  157.4943 C.ar    1  UNL1        0.0253
     16 C         146.3207  141.7206  156.5216 C.ar    1  UNL1        0.1004
     17 N         145.6207  140.5432  155.9100 N.ar    1  UNL1       -0.2296
     18 C         144.1952  140.2476  156.2713 C.ar    1  UNL1        0.1255
     19 N         143.4952  139.0703  155.6598 N.pl3   1  UNL1       -0.3426
     20 C         143.4697  141.1293  157.2441 C.ar    1  UNL1        0.0384
     21 H         143.9714  138.4916  155.0213 H       1  UNL1        0.1437
     22 H         142.5596  138.8763  155.8969 H       1  UNL1        0.1437
     23 C         142.8866  140.8238  167.4943 C.3     1  UNL1        0.1022
     24 C         140.7150  138.4085  164.3950 C.3     1  UNL1        0.0483
     25 C         139.6183  138.5382  165.4101 C.3     1  UNL1        0.1517
     26 C         138.9097  137.7312  164.3628 C.3     1  UNL1        0.0483
     27 C         138.2756  138.3876  166.0615 C.2     1  UNL1        0.0129
     28 C         138.0223  138.9989  167.4077 C.2     1  UNL1        0.0018
     29 C         139.1117  139.7608  168.1024 C.ar    1  UNL1        0.0335
     30 C         138.8583  140.3721  169.4486 C.ar    1  UNL1        0.0030
     31 C         139.9477  141.1339  170.1433 C.ar    1  UNL1       -0.0001
     32 C         141.2906  141.2846  169.4919 C.ar    1  UNL1        0.0001
     33 C         141.5439  140.6733  168.1458 C.ar    1  UNL1        0.0279
     34 C         140.4544  139.9113  167.4510 C.ar    1  UNL1        0.1358
     35 O         140.7077  139.3000  166.1049 O.3     1  UNL1       -0.4788
@<TRIPOS>BOND
     1    24    25    1
     2    25    26    1
     3    25    27    1
     4    27    28    2
     5    28    29    1
     6    29    30   ar
     7    30    31   ar
     8    31    32   ar
     9    32    33   ar
    10    33    23    1
    11    23     1    1
    12     1     2    1
    13     2     3    1
    14     3     4    1
    15     4     5    1
    16     5     6    1
    17     4     7    1
    18     7     8    1
    19     8     9    1
    20     9    10   am
    21    10    11    2
    22    10    14    1
    23    14    15   ar
    24    15    16   ar
    25    16    17   ar
    26    17    18   ar
    27    18    19    1
    28    18    20   ar
    29     9    12    1
    30    12    13    1
    31    33    34   ar
    32    34    35    1
    33    35    25    1
    34    34    29   ar
    35     6     1    1
    36    20    14   ar
    37    13     4    1
    38    19    21    1
    39    19    22    1
