@<TRIPOS>MOLECULE
*****
 30 33 0 0 0
SMALL
GASTEIGER

@<TRIPOS>ATOM
      1 C         142.6122  138.2666  158.5785 C.ar    1  UNL1        0.0000
      2 C         141.4434  138.0775  159.4995 C.ar    1  UNL1        0.0000
      3 C         141.8128  138.6421  160.8393 C.ar    1  UNL1        0.0000
      4 N         143.2100  139.1801  160.7463 N.ar    1  UNL1        0.0000
      5 N         143.7040  138.9480  159.3491 N.ar    1  UNL1        0.0000
      6 C         140.9386  138.6648  162.0580 C.ar    1  UNL1        0.0000
      7 C         140.9519  137.5075  163.0121 C.ar    1  UNL1        0.0000
      8 C         140.0777  137.5301  164.2308 C.ar    1  UNL1        0.0000
      9 C         139.1902  138.7100  164.4954 C.ar    1  UNL1        0.0000
     10 C         139.1769  139.8674  163.5412 C.ar    1  UNL1        0.0000
     11 C         140.0511  139.8448  162.3225 C.ar    1  UNL1        0.0000
     12 C         138.3160  138.7327  165.7140 C.3     1  UNL1        0.0000
     13 F         137.4418  138.7553  166.9327 F       1  UNL1        0.0000
     14 F         138.3901  137.2367  165.7950 F       1  UNL1        0.0000
     15 F         138.2419  140.2286  165.6331 F       1  UNL1        0.0000
     16 C         143.9781  139.8351  161.8556 C.3     1  UNL1        0.0000
     17 C         144.2555  139.0816  163.1226 C.3     1  UNL1        0.0000
     18 C         145.0237  139.7367  164.2320 C.3     1  UNL1        0.0000
     19 C         145.5146  141.1453  164.0744 C.3     1  UNL1        0.0000
     20 C         145.2372  141.8989  162.8074 C.3     1  UNL1        0.0000
     21 C         144.4690  141.2438  161.6980 C.3     1  UNL1        0.0000
     22 C         142.6777  137.8478  157.1397 C.3     1  UNL1        0.0000
     23 C         142.6638  132.1685  156.3733 C.3     1  UNL1        0.0000
     24 SI        142.1203  133.5231  156.0275 Si      1  UNL1        0.0000
     25 C         141.2922  132.6692  155.1137 C.3     1  UNL1        0.0000
     26 C         141.2893  134.5812  155.3644 C.3     1  UNL1        0.0000
     27 C         141.4751  136.0228  155.7351 C.3     1  UNL1        0.0000
     28 N         142.4919  136.4062  156.7690 N.3     1  UNL1        0.0000
     29 C         143.3230  135.3481  157.4321 C.3     1  UNL1        0.0000
     30 C         143.1372  133.9066  157.0614 C.3     1  UNL1        0.0000
@<TRIPOS>BOND
     1    23    24    1
     2    24    25    1
     3    24    26    1
     4    26    27    1
     5    27    28    1
     6    28    22    1
     7    22     1    1
     8     1     2   ar
     9     2     3   ar
    10     3     6    1
    11     6     7   ar
    12     7     8   ar
    13     8     9   ar
    14     9    12    1
    15    12    13    1
    16    12    14    1
    17    12    15    1
    18     9    10   ar
    19    10    11   ar
    20     3     4   ar
    21     4    16    1
    22    16    17    1
    23    17    18    1
    24    18    19    1
    25    19    20    1
    26    20    21    1
    27     4     5   ar
    28    28    29    1
    29    29    30    1
    30    30    24    1
    31     5     1   ar
    32    11     6   ar
    33    21    16    1
@<TRIPOS>MOLECULE
*****
 30 33 0 0 0
SMALL
GASTEIGER

@<TRIPOS>ATOM
      1 C         139.9385  143.4653  162.4633 C.ar    1  UNL1        0.0000
      2 C         139.3903  143.1619  163.8262 C.ar    1  UNL1        0.0000
      3 C         140.3579  142.2516  164.5229 C.ar    1  UNL1        0.0000
      4 N         141.5040  141.9924  163.5905 N.ar    1  UNL1        0.0000
      5 N         141.2448  142.7425  162.3176 N.ar    1  UNL1        0.0000
      6 C         140.2060  141.6978  165.9086 C.ar    1  UNL1        0.0000
      7 C         140.8199  142.4148  167.0743 C.ar    1  UNL1        0.0000
      8 C         140.6680  141.8610  168.4600 C.ar    1  UNL1        0.0000
      9 C         139.9022  140.5901  168.6800 C.ar    1  UNL1        0.0000
     10 C         139.2883  139.8731  167.5142 C.ar    1  UNL1        0.0000
     11 C         139.4402  140.4269  166.1285 C.ar    1  UNL1        0.0000
     12 C         139.7503  140.0363  170.0657 C.3     1  UNL1        0.0000
     13 F         139.5985  139.4825  171.4514 F       1  UNL1        0.0000
     14 F         138.3743  140.6271  170.1509 F       1  UNL1        0.0000
     15 F         141.1264  139.4455  169.9804 F       1  UNL1        0.0000
     16 C         142.6994  141.1340  163.8801 C.3     1  UNL1        0.0000
     17 C         142.5154  139.6916  164.2483 C.3     1  UNL1        0.0000
     18 C         143.7108  138.8330  164.5379 C.3     1  UNL1        0.0000
     19 C         145.0903  139.4169  164.4594 C.3     1  UNL1        0.0000
     20 C         145.2743  140.8594  164.0912 C.3     1  UNL1        0.0000
     21 C         144.0789  141.7178  163.8016 C.3     1  UNL1        0.0000
     22 C         139.2936  144.3382  161.4278 C.3     1  UNL1        0.0000
     23 C         142.0104  145.3984  156.4946 C.3     1  UNL1        0.0000
     24 SI        141.0352  144.5776  157.2854 Si      1  UNL1        0.0000
     25 C         140.9494  143.8792  155.9607 C.3     1  UNL1        0.0000
     26 C         140.0302  143.5144  157.6162 C.3     1  UNL1        0.0000
     27 C         139.4496  143.4346  158.9970 C.3     1  UNL1        0.0000
     28 N         139.8741  144.4180  160.0470 N.3     1  UNL1        0.0000
     29 C         140.8791  145.4812  159.7163 C.3     1  UNL1        0.0000
     30 C         141.4597  145.5611  158.3355 C.3     1  UNL1        0.0000
@<TRIPOS>BOND
     1    23    24    1
     2    24    25    1
     3    24    26    1
     4    26    27    1
     5    27    28    1
     6    28    22    1
     7    22     1    1
     8     1     2   ar
     9     2     3   ar
    10     3     6    1
    11     6     7   ar
    12     7     8   ar
    13     8     9   ar
    14     9    12    1
    15    12    13    1
    16    12    14    1
    17    12    15    1
    18     9    10   ar
    19    10    11   ar
    20     3     4   ar
    21     4    16    1
    22    16    17    1
    23    17    18    1
    24    18    19    1
    25    19    20    1
    26    20    21    1
    27     4     5   ar
    28    28    29    1
    29    29    30    1
    30    30    24    1
    31     5     1   ar
    32    11     6   ar
    33    21    16    1
@<TRIPOS>MOLECULE
*****
 30 33 0 0 0
SMALL
GASTEIGER

@<TRIPOS>ATOM
      1 C         142.4104  137.7810  158.3816 C.ar    1  UNL1        0.0000
      2 C         142.9900  137.5544  159.7465 C.ar    1  UNL1        0.0000
      3 C         142.1465  138.2999  160.7379 C.ar    1  UNL1        0.0000
      4 N         141.0457  138.9873  159.9858 N.ar    1  UNL1        0.0000
      5 N         141.2087  138.6667  158.5296 N.ar    1  UNL1        0.0000
      6 C         142.3655  138.3493  162.2210 C.ar    1  UNL1        0.0000
      7 C         141.4638  137.5779  163.1384 C.ar    1  UNL1        0.0000
      8 C         141.6828  137.6273  164.6215 C.ar    1  UNL1        0.0000
      9 C         142.8035  138.4481  165.1872 C.ar    1  UNL1        0.0000
     10 C         143.7053  139.2196  164.2698 C.ar    1  UNL1        0.0000
     11 C         143.4863  139.1702  162.7867 C.ar    1  UNL1        0.0000
     12 C         143.0225  138.4975  166.6703 C.3     1  UNL1        0.0000
     13 F         143.2415  138.5469  168.1534 F       1  UNL1        0.0000
     14 F         144.3077  137.7419  166.5057 F       1  UNL1        0.0000
     15 F         141.7373  139.2532  166.8349 F       1  UNL1        0.0000
     16 C         139.9706  139.8448  160.5848 C.3     1  UNL1        0.0000
     17 C         140.1413  141.3341  160.6372 C.3     1  UNL1        0.0000
     18 C         139.0661  142.1916  161.2362 C.3     1  UNL1        0.0000
     19 C         137.8203  141.5598  161.7827 C.3     1  UNL1        0.0000
     20 C         137.6495  140.0704  161.7302 C.3     1  UNL1        0.0000
     21 C         138.7247  139.2129  161.1312 C.3     1  UNL1        0.0000
     22 C         142.9395  137.2206  157.0948 C.3     1  UNL1        0.0000
     23 C         142.6007  131.5453  156.3749 C.3     1  UNL1        0.0000
     24 SI        142.1397  132.9262  156.0136 Si      1  UNL1        0.0000
     25 C         141.2703  132.1140  155.1001 C.3     1  UNL1        0.0000
     26 C         141.3768  134.0251  155.3351 C.3     1  UNL1        0.0000
     27 C         141.6434  135.4565  155.6955 C.3     1  UNL1        0.0000
     28 N         142.6729  135.7891  156.7344 N.3     1  UNL1        0.0000
     29 C         143.4358  134.6903  157.4130 C.3     1  UNL1        0.0000
     30 C         143.1692  133.2588  157.0526 C.3     1  UNL1        0.0000
@<TRIPOS>BOND
     1    23    24    1
     2    24    25    1
     3    24    26    1
     4    26    27    1
     5    27    28    1
     6    28    22    1
     7    22     1    1
     8     1     2   ar
     9     2     3   ar
    10     3     6    1
    11     6     7   ar
    12     7     8   ar
    13     8     9   ar
    14     9    12    1
    15    12    13    1
    16    12    14    1
    17    12    15    1
    18     9    10   ar
    19    10    11   ar
    20     3     4   ar
    21     4    16    1
    22    16    17    1
    23    17    18    1
    24    18    19    1
    25    19    20    1
    26    20    21    1
    27     4     5   ar
    28    28    29    1
    29    29    30    1
    30    30    24    1
    31     5     1   ar
    32    11     6   ar
    33    21    16    1
@<TRIPOS>MOLECULE
*****
 30 33 0 0 0
SMALL
GASTEIGER

@<TRIPOS>ATOM
      1 C         141.5134  143.4603  162.2149 C.ar    1  UNL1        0.0000
      2 C         141.8546  143.8050  163.6343 C.ar    1  UNL1        0.0000
      3 C         141.4137  142.6669  164.5065 C.ar    1  UNL1        0.0000
      4 N         140.8000  141.6189  163.6260 N.ar    1  UNL1        0.0000
      5 N         140.8616  142.1093  162.2098 N.ar    1  UNL1        0.0000
      6 C         141.5607  142.5903  165.9973 C.ar    1  UNL1        0.0000
      7 C         140.3980  142.9251  166.8837 C.ar    1  UNL1        0.0000
      8 C         140.5450  142.8485  168.3745 C.ar    1  UNL1        0.0000
      9 C         141.8548  142.4372  168.9789 C.ar    1  UNL1        0.0000
     10 C         143.0176  142.1024  168.0924 C.ar    1  UNL1        0.0000
     11 C         142.8706  142.1790  166.6016 C.ar    1  UNL1        0.0000
     12 C         142.0018  142.3606  170.4697 C.3     1  UNL1        0.0000
     13 F         142.1488  142.2840  171.9605 F       1  UNL1        0.0000
     14 F         142.7938  143.6344  170.4570 F       1  UNL1        0.0000
     15 F         141.2097  141.0868  170.4824 F       1  UNL1        0.0000
     16 C         140.2257  140.3105  164.0818 C.3     1  UNL1        0.0000
     17 C         140.9274  139.0270  163.7498 C.3     1  UNL1        0.0000
     18 C         140.3530  137.7185  164.2056 C.3     1  UNL1        0.0000
     19 C         139.0768  137.6933  164.9934 C.3     1  UNL1        0.0000
     20 C         138.3750  138.9768  165.3255 C.3     1  UNL1        0.0000
     21 C         138.9495  140.2853  164.8696 C.3     1  UNL1        0.0000
     22 C         141.7775  144.3164  161.0118 C.3     1  UNL1        0.0000
     23 C         145.2873  141.7870  157.2534 C.3     1  UNL1        0.0000
     24 SI        144.0940  142.6524  157.5311 Si      1  UNL1        0.0000
     25 C         144.0837  142.6681  156.0312 C.3     1  UNL1        0.0000
     26 C         142.8971  143.5233  157.2879 C.3     1  UNL1        0.0000
     27 C         142.1250  144.0779  158.4482 C.3     1  UNL1        0.0000
     28 N         142.5497  143.7617  159.8516 N.3     1  UNL1        0.0000
     29 C         143.7465  142.8909  160.0947 C.3     1  UNL1        0.0000
     30 C         144.5187  142.3363  158.9345 C.3     1  UNL1        0.0000
@<TRIPOS>BOND
     1    23    24    1
     2    24    25    1
     3    24    26    1
     4    26    27    1
     5    27    28    1
     6    28    22    1
     7    22     1    1
     8     1     2   ar
     9     2     3   ar
    10     3     6    1
    11     6     7   ar
    12     7     8   ar
    13     8     9   ar
    14     9    12    1
    15    12    13    1
    16    12    14    1
    17    12    15    1
    18     9    10   ar
    19    10    11   ar
    20     3     4   ar
    21     4    16    1
    22    16    17    1
    23    17    18    1
    24    18    19    1
    25    19    20    1
    26    20    21    1
    27     4     5   ar
    28    28    29    1
    29    29    30    1
    30    30    24    1
    31     5     1   ar
    32    11     6   ar
    33    21    16    1
@<TRIPOS>MOLECULE
*****
 30 33 0 0 0
SMALL
GASTEIGER

@<TRIPOS>ATOM
      1 C         143.3597  141.8666  161.5546 C.ar    1  UNL1        0.0000
      2 C         143.7794  141.3655  162.9047 C.ar    1  UNL1        0.0000
      3 C         142.6993  141.7148  163.8852 C.ar    1  UNL1        0.0000
      4 N         141.6120  142.4319  163.1410 N.ar    1  UNL1        0.0000
      5 N         142.0201  142.5257  161.7007 N.ar    1  UNL1        0.0000
      6 C         142.7054  141.4021  165.3522 C.ar    1  UNL1        0.0000
      7 C         143.0500  142.4717  166.3456 C.ar    1  UNL1        0.0000
      8 C         143.0560  142.1590  167.8126 C.ar    1  UNL1        0.0000
      9 C         142.7176  140.7766  168.2862 C.ar    1  UNL1        0.0000
     10 C         142.3730  139.7069  167.2927 C.ar    1  UNL1        0.0000
     11 C         142.3669  140.0196  165.8257 C.ar    1  UNL1        0.0000
     12 C         142.7237  140.4639  169.7532 C.3     1  UNL1        0.0000
     13 F         142.7298  140.1511  171.2202 F       1  UNL1        0.0000
     14 F         141.6283  139.4608  169.5439 F       1  UNL1        0.0000
     15 F         143.8191  141.4670  169.9625 F       1  UNL1        0.0000
     16 C         140.3400  142.9620  163.7332 C.3     1  UNL1        0.0000
     17 C         140.3322  144.2933  164.4243 C.3     1  UNL1        0.0000
     18 C         139.0601  144.8235  165.0165 C.3     1  UNL1        0.0000
     19 C         137.7958  144.0224  164.9177 C.3     1  UNL1        0.0000
     20 C         137.8036  142.6910  164.2267 C.3     1  UNL1        0.0000
     21 C         139.0757  142.1609  163.6344 C.3     1  UNL1        0.0000
     22 C         144.1421  141.7322  160.2819 C.3     1  UNL1        0.0000
     23 C         142.5359  137.0933  157.3250 C.3     1  UNL1        0.0000
     24 SI        143.1289  138.4709  157.3514 Si      1  UNL1        0.0000
     25 C         143.2044  138.1830  155.8812 C.3     1  UNL1        0.0000
     26 C         143.7480  139.7485  156.8673 C.3     1  UNL1        0.0000
     27 C         144.0858  140.8356  157.8441 C.3     1  UNL1        0.0000
     28 N         143.8043  140.6451  159.3051 N.3     1  UNL1        0.0000
     29 C         143.1852  139.3676  159.7892 C.3     1  UNL1        0.0000
     30 C         142.8475  138.2805  158.8124 C.3     1  UNL1        0.0000
@<TRIPOS>BOND
     1    23    24    1
     2    24    25    1
     3    24    26    1
     4    26    27    1
     5    27    28    1
     6    28    22    1
     7    22     1    1
     8     1     2   ar
     9     2     3   ar
    10     3     6    1
    11     6     7   ar
    12     7     8   ar
    13     8     9   ar
    14     9    12    1
    15    12    13    1
    16    12    14    1
    17    12    15    1
    18     9    10   ar
    19    10    11   ar
    20     3     4   ar
    21     4    16    1
    22    16    17    1
    23    17    18    1
    24    18    19    1
    25    19    20    1
    26    20    21    1
    27     4     5   ar
    28    28    29    1
    29    29    30    1
    30    30    24    1
    31     5     1   ar
    32    11     6   ar
    33    21    16    1
@<TRIPOS>MOLECULE
*****
 30 33 0 0 0
SMALL
GASTEIGER

@<TRIPOS>ATOM
      1 C         142.5855  138.3336  158.6661 C.ar    1  UNL1        0.0000
      2 C         141.4343  138.1206  159.6038 C.ar    1  UNL1        0.0000
      3 C         141.8211  138.6700  160.9450 C.ar    1  UNL1        0.0000
      4 N         143.2114  139.2225  160.8361 N.ar    1  UNL1        0.0000
      5 N         143.6838  139.0146  159.4277 N.ar    1  UNL1        0.0000
      6 C         140.9675  138.6672  162.1785 C.ar    1  UNL1        0.0000
      7 C         140.9768  137.4794  163.0943 C.ar    1  UNL1        0.0000
      8 C         140.1232  137.4767  164.3277 C.ar    1  UNL1        0.0000
      9 C         139.2604  138.6618  164.6453 C.ar    1  UNL1        0.0000
     10 C         139.2512  139.8497  163.7295 C.ar    1  UNL1        0.0000
     11 C         140.1048  139.8525  162.4960 C.ar    1  UNL1        0.0000
     12 C         138.4069  138.6591  165.8788 C.3     1  UNL1        0.0000
     13 F         137.5533  138.6564  167.1122 F       1  UNL1        0.0000
     14 F         138.4825  140.1561  165.9344 F       1  UNL1        0.0000
     15 F         138.3312  137.1621  165.8231 F       1  UNL1        0.0000
     16 C         143.9922  139.8693  161.9415 C.3     1  UNL1        0.0000
     17 C         144.2477  139.1214  163.2164 C.3     1  UNL1        0.0000
     18 C         145.0285  139.7682  164.3218 C.3     1  UNL1        0.0000
     19 C         145.5538  141.1630  164.1523 C.3     1  UNL1        0.0000
     20 C         145.2983  141.9110  162.8774 C.3     1  UNL1        0.0000
     21 C         144.5175  141.2640  161.7720 C.3     1  UNL1        0.0000
     22 C         142.6305  137.9356  157.2206 C.3     1  UNL1        0.0000
     23 C         138.2422  139.4228  153.8482 C.3     1  UNL1        0.0000
     24 SI        138.9644  138.3802  154.6491 Si      1  UNL1        0.0000
     25 C         137.8144  137.5647  154.1367 C.3     1  UNL1        0.0000
     26 C         139.2873  137.0545  155.2720 C.3     1  UNL1        0.0000
     27 C         140.5093  136.9063  156.1292 C.3     1  UNL1        0.0000
     28 N         141.4085  138.0838  156.3634 N.3     1  UNL1        0.0000
     29 C         141.0856  139.4095  155.7405 C.3     1  UNL1        0.0000
     30 C         139.8636  139.5578  154.8834 C.3     1  UNL1        0.0000
@<TRIPOS>BOND
     1    23    24    1
     2    24    25    1
     3    24    26    1
     4    26    27    1
     5    27    28    1
     6    28    22    1
     7    22     1    1
     8     1     2   ar
     9     2     3   ar
    10     3     6    1
    11     6     7   ar
    12     7     8   ar
    13     8     9   ar
    14     9    12    1
    15    12    13    1
    16    12    14    1
    17    12    15    1
    18     9    10   ar
    19    10    11   ar
    20     3     4   ar
    21     4    16    1
    22    16    17    1
    23    17    18    1
    24    18    19    1
    25    19    20    1
    26    20    21    1
    27     4     5   ar
    28    28    29    1
    29    29    30    1
    30    30    24    1
    31     5     1   ar
    32    11     6   ar
    33    21    16    1
@<TRIPOS>MOLECULE
*****
 30 33 0 0 0
SMALL
GASTEIGER

@<TRIPOS>ATOM
      1 C         139.2686  142.0992  161.8300 C.ar    1  UNL1        0.0000
      2 C         138.8019  141.9158  163.2438 C.ar    1  UNL1        0.0000
      3 C         139.9655  141.4308  164.0568 C.ar    1  UNL1        0.0000
      4 N         141.1513  141.3145  163.1455 N.ar    1  UNL1        0.0000
      5 N         140.7206  141.7275  161.7693 N.ar    1  UNL1        0.0000
      6 C         139.9466  141.1173  165.5235 C.ar    1  UNL1        0.0000
      7 C         139.1423  139.9580  166.0323 C.ar    1  UNL1        0.0000
      8 C         139.1234  139.6444  167.4990 C.ar    1  UNL1        0.0000
      9 C         139.9088  140.4901  168.4570 C.ar    1  UNL1        0.0000
     10 C         140.7132  141.6495  167.9482 C.ar    1  UNL1        0.0000
     11 C         140.7321  141.9631  166.4814 C.ar    1  UNL1        0.0000
     12 C         139.8899  140.1766  169.9237 C.3     1  UNL1        0.0000
     13 F         139.8710  139.8630  171.3904 F       1  UNL1        0.0000
     14 F         141.3179  139.7242  169.8454 F       1  UNL1        0.0000
     15 F         138.4619  140.6290  170.0020 F       1  UNL1        0.0000
     16 C         142.5263  140.8642  163.5409 C.3     1  UNL1        0.0000
     17 C         143.6789  141.8213  163.4680 C.3     1  UNL1        0.0000
     18 C         145.0540  141.3710  163.8634 C.3     1  UNL1        0.0000
     19 C         145.2765  139.9635  164.3319 C.3     1  UNL1        0.0000
     20 C         144.1238  139.0062  164.4049 C.3     1  UNL1        0.0000
     21 C         142.7488  139.4567  164.0094 C.3     1  UNL1        0.0000
     22 C         138.4304  142.5713  160.6791 C.3     1  UNL1        0.0000
     23 C         140.4016  144.8070  155.7844 C.3     1  UNL1        0.0000
     24 SI        140.3369  144.8255  157.2829 Si      1  UNL1        0.0000
     25 C         141.2460  145.9952  157.0470 C.3     1  UNL1        0.0000
     26 C         140.5880  145.2501  158.6995 C.3     1  UNL1        0.0000
     27 C         139.9525  144.4987  159.8315 C.3     1  UNL1        0.0000
     28 N         139.0659  143.3227  159.5471 N.3     1  UNL1        0.0000
     29 C         138.8149  142.8980  158.1305 C.3     1  UNL1        0.0000
     30 C         139.4504  143.6494  156.9985 C.3     1  UNL1        0.0000
@<TRIPOS>BOND
     1    23    24    1
     2    24    25    1
     3    24    26    1
     4    26    27    1
     5    27    28    1
     6    28    22    1
     7    22     1    1
     8     1     2   ar
     9     2     3   ar
    10     3     6    1
    11     6     7   ar
    12     7     8   ar
    13     8     9   ar
    14     9    12    1
    15    12    13    1
    16    12    14    1
    17    12    15    1
    18     9    10   ar
    19    10    11   ar
    20     3     4   ar
    21     4    16    1
    22    16    17    1
    23    17    18    1
    24    18    19    1
    25    19    20    1
    26    20    21    1
    27     4     5   ar
    28    28    29    1
    29    29    30    1
    30    30    24    1
    31     5     1   ar
    32    11     6   ar
    33    21    16    1
@<TRIPOS>MOLECULE
*****
 30 33 0 0 0
SMALL
GASTEIGER

@<TRIPOS>ATOM
      1 C         138.9788  140.8523  162.1813 C.ar    1  UNL1        0.0000
      2 C         138.6689  140.9382  163.6464 C.ar    1  UNL1        0.0000
      3 C         139.9551  141.1826  164.3787 C.ar    1  UNL1        0.0000
      4 N         141.0599  141.2477  163.3661 N.ar    1  UNL1        0.0000
      5 N         140.4565  141.0435  162.0080 N.ar    1  UNL1        0.0000
      6 C         140.1094  141.3352  165.8629 C.ar    1  UNL1        0.0000
      7 C         140.0522  140.1277  166.7509 C.ar    1  UNL1        0.0000
      8 C         140.2065  140.2802  168.2351 C.ar    1  UNL1        0.0000
      9 C         140.4179  141.6402  168.8313 C.ar    1  UNL1        0.0000
     10 C         140.4750  142.8478  167.9433 C.ar    1  UNL1        0.0000
     11 C         140.3207  142.6953  166.4591 C.ar    1  UNL1        0.0000
     12 C         140.5722  141.7928  170.3155 C.3     1  UNL1        0.0000
     13 F         140.7264  141.9453  171.7997 F       1  UNL1        0.0000
     14 F         139.2468  142.4921  170.3814 F       1  UNL1        0.0000
     15 F         141.8975  141.0934  170.2497 F       1  UNL1        0.0000
     16 C         142.5128  141.4767  163.6599 C.3     1  UNL1        0.0000
     17 C         143.4614  140.3156  163.7027 C.3     1  UNL1        0.0000
     18 C         144.9144  140.5446  163.9966 C.3     1  UNL1        0.0000
     19 C         145.4188  141.9347  164.2477 C.3     1  UNL1        0.0000
     20 C         144.4701  143.0960  164.2049 C.3     1  UNL1        0.0000
     21 C         143.0172  142.8668  163.9110 C.3     1  UNL1        0.0000
     22 C         137.9855  140.6165  161.0823 C.3     1  UNL1        0.0000
     23 C         140.1825  137.9493  156.5105 C.3     1  UNL1        0.0000
     24 SI        139.3716  139.0703  157.0901 Si      1  UNL1        0.0000
     25 C         139.2686  139.4016  155.6307 C.3     1  UNL1        0.0000
     26 C         138.5249  140.3063  157.1628 C.3     1  UNL1        0.0000
     27 C         138.0629  140.8217  158.4935 C.3     1  UNL1        0.0000
     28 N         138.4475  140.1011  159.7516 N.3     1  UNL1        0.0000
     29 C         139.2942  138.8650  159.6788 C.3     1  UNL1        0.0000
     30 C         139.7563  138.3497  158.3481 C.3     1  UNL1        0.0000
@<TRIPOS>BOND
     1    23    24    1
     2    24    25    1
     3    24    26    1
     4    26    27    1
     5    27    28    1
     6    28    22    1
     7    22     1    1
     8     1     2   ar
     9     2     3   ar
    10     3     6    1
    11     6     7   ar
    12     7     8   ar
    13     8     9   ar
    14     9    12    1
    15    12    13    1
    16    12    14    1
    17    12    15    1
    18     9    10   ar
    19    10    11   ar
    20     3     4   ar
    21     4    16    1
    22    16    17    1
    23    17    18    1
    24    18    19    1
    25    19    20    1
    26    20    21    1
    27     4     5   ar
    28    28    29    1
    29    29    30    1
    30    30    24    1
    31     5     1   ar
    32    11     6   ar
    33    21    16    1
@<TRIPOS>MOLECULE
*****
 30 33 0 0 0
SMALL
GASTEIGER

@<TRIPOS>ATOM
      1 C         143.1116  139.6290  162.4261 C.ar    1  UNL1        0.0000
      2 C         143.4318  139.6844  163.8905 C.ar    1  UNL1        0.0000
      3 C         142.4161  140.5667  164.5540 C.ar    1  UNL1        0.0000
      4 N         141.4682  141.0565  163.4996 N.ar    1  UNL1        0.0000
      5 N         141.8980  140.4770  162.1845 N.ar    1  UNL1        0.0000
      6 C         142.3585  140.9005  166.0152 C.ar    1  UNL1        0.0000
      7 C         141.5147  140.0748  166.9404 C.ar    1  UNL1        0.0000
      8 C         141.4571  140.4087  168.4017 C.ar    1  UNL1        0.0000
      9 C         142.2433  141.5682  168.9377 C.ar    1  UNL1        0.0000
     10 C         143.0871  142.3939  168.0124 C.ar    1  UNL1        0.0000
     11 C         143.1447  142.0601  166.5512 C.ar    1  UNL1        0.0000
     12 C         142.1857  141.9020  170.3989 C.3     1  UNL1        0.0000
     13 F         142.1281  142.2358  171.8601 F       1  UNL1        0.0000
     14 F         141.9691  143.3471  170.0602 F       1  UNL1        0.0000
     15 F         142.4023  140.4569  170.7376 F       1  UNL1        0.0000
     16 C         140.2963  141.9660  163.7214 C.3     1  UNL1        0.0000
     17 C         140.5139  143.4390  163.9025 C.3     1  UNL1        0.0000
     18 C         139.3419  144.3486  164.1243 C.3     1  UNL1        0.0000
     19 C         137.9524  143.7852  164.1650 C.3     1  UNL1        0.0000
     20 C         137.7348  142.3121  163.9839 C.3     1  UNL1        0.0000
     21 C         138.9068  141.4026  163.7621 C.3     1  UNL1        0.0000
     22 C         143.8715  138.8605  161.3859 C.3     1  UNL1        0.0000
     23 C         142.8010  140.1579  155.9075 C.3     1  UNL1        0.0000
     24 SI        142.7119  139.1905  157.0504 Si      1  UNL1        0.0000
     25 C         142.0305  138.3916  155.9792 C.3     1  UNL1        0.0000
     26 C         142.3861  137.9457  157.8213 C.3     1  UNL1        0.0000
     27 C         142.7726  137.8357  159.2664 C.3     1  UNL1        0.0000
     28 N         143.4849  138.9705  159.9407 N.3     1  UNL1        0.0000
     29 C         143.8107  140.2153  159.1698 C.3     1  UNL1        0.0000
     30 C         143.4242  140.3253  157.7247 C.3     1  UNL1        0.0000
@<TRIPOS>BOND
     1    23    24    1
     2    24    25    1
     3    24    26    1
     4    26    27    1
     5    27    28    1
     6    28    22    1
     7    22     1    1
     8     1     2   ar
     9     2     3   ar
    10     3     6    1
    11     6     7   ar
    12     7     8   ar
    13     8     9   ar
    14     9    12    1
    15    12    13    1
    16    12    14    1
    17    12    15    1
    18     9    10   ar
    19    10    11   ar
    20     3     4   ar
    21     4    16    1
    22    16    17    1
    23    17    18    1
    24    18    19    1
    25    19    20    1
    26    20    21    1
    27     4     5   ar
    28    28    29    1
    29    29    30    1
    30    30    24    1
    31     5     1   ar
    32    11     6   ar
    33    21    16    1
