@<TRIPOS>MOLECULE
*****
 43 48 0 0 0
SMALL
GASTEIGER

@<TRIPOS>ATOM
      1 C         144.2995  142.4505  161.2485 C.ar    1  UNL1        0.0536
      2 C         145.0015  141.5147  162.1875 C.ar    1  UNL1        0.0042
      3 C         144.9064  141.7280  163.6691 C.ar    1  UNL1       -0.0041
      4 C         144.1094  142.8771  164.2119 C.ar    1  UNL1       -0.0208
      5 C         143.4075  143.8128  163.2729 C.ar    1  UNL1       -0.0041
      6 C         143.5025  143.5995  161.7912 C.ar    1  UNL1        0.0042
      7 N         141.3570  139.6676  157.6641 N.3     1  UNL1       -0.2647
      8 C         141.2620  139.8810  159.1458 C.3     1  UNL1        0.0942
      9 C         142.2745  140.7374  159.8467 C.3     1  UNL1        0.1111
     10 N         143.3820  141.3806  159.0659 N.am    1  UNL1       -0.2732
     11 C         144.3945  142.2372  159.7668 C.2     1  UNL1        0.2491
     12 O         145.5021  142.8803  158.9860 O.2     1  UNL1       -0.2699
     13 C         143.4770  141.1673  157.5842 C.3     1  UNL1        0.1111
     14 C         142.4645  140.3108  156.8832 C.3     1  UNL1        0.0942
     15 C         140.3445  138.8111  156.9632 C.3     1  UNL1        0.1187
     16 C         141.9435  135.3899  155.7434 C.ar    1  UNL1        0.1358
     17 C         141.7009  135.4745  154.2656 C.ar    1  UNL1        0.0239
     18 C         141.0062  136.6714  153.6870 C.ar    1  UNL1        0.0030
     19 C         140.5540  137.7836  154.5862 C.ar    1  UNL1        0.0161
     20 C         140.7966  137.6989  156.0640 C.ar    1  UNL1        0.0753
     21 N         141.4914  136.5021  156.6426 N.ar    1  UNL1       -0.2435
     22 C         145.5430  132.3185  158.0868 C.3     1  UNL1        0.0967
     23 C         144.2928  132.7812  157.3992 C.ar    1  UNL1        0.2270
     24 N         143.1219  131.9211  157.0258 N.ar    1  UNL1       -0.1113
     25 N         142.0994  132.7936  156.3601 N.ar    1  UNL1       -0.1056
     26 C         142.6383  134.1930  156.3221 C.ar    1  UNL1        0.2673
     27 O         143.9938  134.1853  156.9642 O.2     1  UNL1       -0.4182
     28 C         144.0144  143.0904  165.6936 C.3     1  UNL1        0.0420
     29 C         143.0201  142.3101  166.5014 C.3     1  UNL1        0.0585
     30 C         143.0146  142.1681  167.9947 C.3     1  UNL1        0.0175
     31 C         141.8478  141.3051  168.3740 C.3     1  UNL1        0.0199
     32 C         141.1322  140.9138  167.1151 C.3     1  UNL1        0.0855
     33 N         141.8567  141.5349  165.9578 N.3     1  UNL1       -0.2971
     34 H         141.2295  142.1608  165.4525 H       1  UNL1        0.1233
     35 C         139.9071  140.0525  167.0287 C.3     1  UNL1        0.1470
     36 O         139.1939  139.6352  168.2806 O.3     1  UNL1       -0.3787
     37 H         139.6515  140.0047  169.0519 H       1  UNL1        0.2108
     38 C         139.3953  139.6085  165.6904 C.ar    1  UNL1        0.0055
     39 C         139.7520  138.2500  165.1641 C.ar    1  UNL1       -0.0019
     40 C         139.2402  137.8060  163.8259 C.ar    1  UNL1       -0.0002
     41 C         138.3717  138.7206  163.0140 C.ar    1  UNL1       -0.0000
     42 C         138.0150  140.0792  163.5404 C.ar    1  UNL1       -0.0002
     43 C         138.5268  140.5231  164.8786 C.ar    1  UNL1       -0.0019
@<TRIPOS>BOND
     1    22    23    1
     2    23    24   ar
     3    24    25   ar
     4    25    26   ar
     5    26    16    1
     6    16    17   ar
     7    17    18   ar
     8    18    19   ar
     9    19    20   ar
    10    20    15    1
    11    15     7    1
    12     7     8    1
    13     8     9    1
    14     9    10    1
    15    10    11   am
    16    11    12    2
    17    11     1    1
    18     1     2   ar
    19     2     3   ar
    20     3     4   ar
    21     4    28    1
    22    29    28    1
    23    29    30    1
    24    30    31    1
    25    32    31    1
    26    32    35    1
    27    35    36    1
    28    35    38    1
    29    38    39   ar
    30    39    40   ar
    31    40    41   ar
    32    41    42   ar
    33    42    43   ar
    34    32    33    1
    35     4     5   ar
    36     5     6   ar
    37    10    13    1
    38    13    14    1
    39    20    21   ar
    40    26    27   ar
    41    27    23   ar
    42    21    16   ar
    43    14     7    1
    44     6     1   ar
    45    33    29    1
    46    43    38   ar
    47    36    37    1
    48    33    34    1
@<TRIPOS>MOLECULE
*****
 43 48 0 0 0
SMALL
GASTEIGER

@<TRIPOS>ATOM
      1 C         143.0161  139.0235  159.9660 C.ar    1  UNL1        0.0536
      2 C         143.9429  140.1084  160.4287 C.ar    1  UNL1        0.0042
      3 C         144.3365  140.1929  161.8736 C.ar    1  UNL1       -0.0041
      4 C         143.8033  139.1924  162.8559 C.ar    1  UNL1       -0.0208
      5 C         142.8765  138.1075  162.3932 C.ar    1  UNL1       -0.0041
      6 C         142.4829  138.0231  160.9482 C.ar    1  UNL1        0.0042
      7 N         139.3142  141.5443  156.9341 N.3     1  UNL1       -0.2647
      8 C         139.7078  141.6287  158.3792 C.3     1  UNL1        0.0942
      9 C         140.8106  140.7603  158.9081 C.3     1  UNL1        0.1111
     10 N         141.5197  139.8075  157.9920 N.am    1  UNL1       -0.2732
     11 C         142.6225  138.9390  158.5210 C.2     1  UNL1        0.2491
     12 O         143.3317  137.9862  157.6050 O.2     1  UNL1       -0.2699
     13 C         141.1262  139.7230  156.5471 C.3     1  UNL1        0.1111
     14 C         140.0234  140.5914  156.0181 C.3     1  UNL1        0.0942
     15 C         138.2114  142.4127  156.4052 C.3     1  UNL1        0.1187
     16 C         134.7602  140.5567  155.7773 C.ar    1  UNL1        0.1358
     17 C         134.7080  140.5548  154.2782 C.ar    1  UNL1        0.0239
     18 C         135.8236  141.1721  153.4882 C.ar    1  UNL1        0.0030
     19 C         136.9914  141.7914  154.1972 C.ar    1  UNL1        0.0161
     20 C         137.0436  141.7934  155.6962 C.ar    1  UNL1        0.0753
     21 N         135.9280  141.1760  156.4863 N.ar    1  UNL1       -0.2435
     22 C         129.9790  139.5701  157.7893 C.3     1  UNL1        0.0967
     23 C         131.4469  139.4859  157.4922 C.ar    1  UNL1        0.2270
     24 N         132.4087  138.4928  158.0744 N.ar    1  UNL1       -0.1113
     25 N         133.7669  138.7731  157.5028 N.ar    1  UNL1       -0.1056
     26 C         133.6445  139.9394  156.5674 C.ar    1  UNL1        0.2673
     27 O         132.2107  140.3799  156.5609 O.2     1  UNL1       -0.4182
     28 C         144.1968  139.2769  164.3009 C.3     1  UNL1        0.0420
     29 C         143.2097  139.7640  165.3199 C.3     1  UNL1        0.0585
     30 C         142.8781  139.0905  166.6185 C.3     1  UNL1        0.0175
     31 C         141.8443  139.9204  167.3204 C.3     1  UNL1        0.0199
     32 C         141.5370  141.1068  166.4555 C.3     1  UNL1        0.0855
     33 N         142.3808  141.0101  165.2191 N.3     1  UNL1       -0.2971
     34 H         142.9892  141.8259  165.1506 H       1  UNL1        0.1233
     35 C         140.5577  142.1982  166.7715 C.3     1  UNL1        0.1470
     36 O         140.5157  142.7927  168.1479 O.3     1  UNL1       -0.3787
     37 H         141.1813  142.3618  168.7067 H       1  UNL1        0.2108
     38 C         139.6204  142.6951  165.7110 C.ar    1  UNL1        0.0055
     39 C         139.6133  144.1477  165.3371 C.ar    1  UNL1       -0.0019
     40 C         138.6760  144.6445  164.2766 C.ar    1  UNL1       -0.0002
     41 C         137.7459  143.6888  163.5900 C.ar    1  UNL1       -0.0000
     42 C         137.7531  142.2362  163.9639 C.ar    1  UNL1       -0.0002
     43 C         138.6904  141.7393  165.0244 C.ar    1  UNL1       -0.0019
@<TRIPOS>BOND
     1    22    23    1
     2    23    24   ar
     3    24    25   ar
     4    25    26   ar
     5    26    16    1
     6    16    17   ar
     7    17    18   ar
     8    18    19   ar
     9    19    20   ar
    10    20    15    1
    11    15     7    1
    12     7     8    1
    13     8     9    1
    14     9    10    1
    15    10    11   am
    16    11    12    2
    17    11     1    1
    18     1     2   ar
    19     2     3   ar
    20     3     4   ar
    21     4    28    1
    22    29    28    1
    23    29    30    1
    24    30    31    1
    25    32    31    1
    26    32    35    1
    27    35    36    1
    28    35    38    1
    29    38    39   ar
    30    39    40   ar
    31    40    41   ar
    32    41    42   ar
    33    42    43   ar
    34    32    33    1
    35     4     5   ar
    36     5     6   ar
    37    10    13    1
    38    13    14    1
    39    20    21   ar
    40    26    27   ar
    41    27    23   ar
    42    21    16   ar
    43    14     7    1
    44     6     1   ar
    45    33    29    1
    46    43    38   ar
    47    36    37    1
    48    33    34    1
@<TRIPOS>MOLECULE
*****
 43 48 0 0 0
SMALL
GASTEIGER

@<TRIPOS>ATOM
      1 C         140.0320  140.0653  157.4291 C.ar    1  UNL1        0.0536
      2 C         139.4352  139.1603  156.3923 C.ar    1  UNL1        0.0042
      3 C         138.2229  139.5966  155.6243 C.ar    1  UNL1       -0.0041
      4 C         137.6073  140.9379  155.8929 C.ar    1  UNL1       -0.0208
      5 C         138.2041  141.8429  156.9296 C.ar    1  UNL1       -0.0041
      6 C         139.4165  141.4066  157.6977 C.ar    1  UNL1        0.0042
      7 N         140.7762  137.7136  162.2422 N.3     1  UNL1       -0.2647
      8 C         139.5638  138.1499  161.4741 C.3     1  UNL1        0.0942
      9 C         139.7199  138.7884  160.1258 C.3     1  UNL1        0.1111
     10 N         141.0883  138.9906  159.5455 N.am    1  UNL1       -0.2732
     11 C         141.2443  139.6291  158.1971 C.2     1  UNL1        0.2491
     12 O         142.6127  139.8313  157.6169 O.2     1  UNL1       -0.2699
     13 C         142.3006  138.5544  160.3136 C.3     1  UNL1        0.1111
     14 C         142.1445  137.9159  161.6620 C.3     1  UNL1        0.0942
     15 C         140.6201  137.0752  163.5905 C.3     1  UNL1        0.1187
     16 C         140.4106  139.6843  166.5736 C.ar    1  UNL1        0.1358
     17 C         139.0012  139.4692  167.0399 C.ar    1  UNL1        0.0239
     18 C         138.1315  138.4561  166.3564 C.ar    1  UNL1        0.0030
     19 C         138.6711  137.6581  165.2066 C.ar    1  UNL1        0.0161
     20 C         140.0805  137.8732  164.7403 C.ar    1  UNL1        0.0753
     21 N         140.9502  138.8863  165.4238 N.ar    1  UNL1       -0.2435
     22 C         142.2759  143.1308  170.1124 C.3     1  UNL1        0.0967
     23 C         142.1378  142.2816  168.8837 C.ar    1  UNL1        0.2270
     24 N         143.0999  142.2312  167.7339 N.ar    1  UNL1       -0.1113
     25 N         142.5700  141.2521  166.7287 N.ar    1  UNL1       -0.1056
     26 C         141.2804  140.6974  167.2571 C.ar    1  UNL1        0.2673
     27 O         141.0132  141.3337  168.5889 O.2     1  UNL1       -0.4182
     28 C         136.3950  141.3741  155.1248 C.3     1  UNL1        0.0420
     29 C         135.0275  140.9663  155.5870 C.3     1  UNL1        0.0585
     30 C         133.7252  141.4828  155.0510 C.3     1  UNL1        0.0175
     31 C         132.6150  140.8061  155.7989 C.3     1  UNL1        0.0199
     32 C         133.2311  139.8713  156.7972 C.3     1  UNL1        0.0855
     33 N         134.7221  139.9703  156.6662 N.3     1  UNL1       -0.2971
     34 H         135.1089  139.0601  156.4167 H       1  UNL1        0.1233
     35 C         132.4870  138.9919  157.7579 C.3     1  UNL1        0.1470
     36 O         133.2035  138.3830  158.9266 O.3     1  UNL1       -0.3787
     37 H         134.1340  138.6566  158.9136 H       1  UNL1        0.2108
     38 C         131.0263  138.7214  157.5499 C.ar    1  UNL1        0.0055
     39 C         130.5768  137.8793  156.3928 C.ar    1  UNL1       -0.0019
     40 C         129.1162  137.6088  156.1848 C.ar    1  UNL1       -0.0002
     41 C         128.1050  138.1804  157.1338 C.ar    1  UNL1       -0.0000
     42 C         128.5545  139.0224  158.2909 C.ar    1  UNL1       -0.0002
     43 C         130.0151  139.2930  158.4989 C.ar    1  UNL1       -0.0019
@<TRIPOS>BOND
     1    22    23    1
     2    23    24   ar
     3    24    25   ar
     4    25    26   ar
     5    26    16    1
     6    16    17   ar
     7    17    18   ar
     8    18    19   ar
     9    19    20   ar
    10    20    15    1
    11    15     7    1
    12     7     8    1
    13     8     9    1
    14     9    10    1
    15    10    11   am
    16    11    12    2
    17    11     1    1
    18     1     2   ar
    19     2     3   ar
    20     3     4   ar
    21     4    28    1
    22    29    28    1
    23    29    30    1
    24    30    31    1
    25    32    31    1
    26    32    35    1
    27    35    36    1
    28    35    38    1
    29    38    39   ar
    30    39    40   ar
    31    40    41   ar
    32    41    42   ar
    33    42    43   ar
    34    32    33    1
    35     4     5   ar
    36     5     6   ar
    37    10    13    1
    38    13    14    1
    39    20    21   ar
    40    26    27   ar
    41    27    23   ar
    42    21    16   ar
    43    14     7    1
    44     6     1   ar
    45    33    29    1
    46    43    38   ar
    47    36    37    1
    48    33    34    1
@<TRIPOS>MOLECULE
*****
 43 48 0 0 0
SMALL
GASTEIGER

@<TRIPOS>ATOM
      1 C         140.0100  138.8068  157.7301 C.ar    1  UNL1        0.0536
      2 C         139.6238  137.6092  156.9137 C.ar    1  UNL1        0.0042
      3 C         140.6464  136.9251  156.0556 C.ar    1  UNL1       -0.0041
      4 C         142.0552  137.4386  156.0140 C.ar    1  UNL1       -0.0208
      5 C         142.4414  138.6362  156.8304 C.ar    1  UNL1       -0.0041
      6 C         141.4187  139.3203  157.6885 C.ar    1  UNL1        0.0042
      7 N         138.8295  138.6475  163.0057 N.3     1  UNL1       -0.2647
      8 C         139.8521  137.9634  162.1476 C.3     1  UNL1        0.0942
      9 C         139.9047  138.2446  160.6751 C.3     1  UNL1        0.1111
     10 N         138.9348  139.2098  160.0607 N.am    1  UNL1       -0.2732
     11 C         138.9875  139.4910  158.5882 C.2     1  UNL1        0.2491
     12 O         138.0175  140.4562  157.9738 O.2     1  UNL1       -0.2699
     13 C         137.9123  139.8939  160.9188 C.3     1  UNL1        0.1111
     14 C         137.8596  139.6128  162.3913 C.3     1  UNL1        0.0942
     15 C         138.7769  138.3664  164.4781 C.3     1  UNL1        0.1187
     16 C         141.0833  141.2356  165.9607 C.ar    1  UNL1        0.1358
     17 C         140.6244  141.2589  167.3886 C.ar    1  UNL1        0.0239
     18 C         139.5496  140.3180  167.8463 C.ar    1  UNL1        0.0030
     19 C         138.9338  139.3538  166.8761 C.ar    1  UNL1        0.0161
     20 C         139.3927  139.3305  165.4483 C.ar    1  UNL1        0.0753
     21 N         140.4675  140.2714  164.9906 N.ar    1  UNL1       -0.2435
     22 C         143.6042  145.1510  163.4714 C.3     1  UNL1        0.0967
     23 C         143.3169  143.9762  164.3588 C.ar    1  UNL1        0.2270
     24 N         144.3075  143.2725  165.2384 N.ar    1  UNL1       -0.1113
     25 N         143.5913  142.1603  165.9455 N.ar    1  UNL1       -0.1056
     26 C         142.1582  142.1765  165.5030 C.ar    1  UNL1        0.2673
     27 O         141.9886  143.2988  164.5223 O.2     1  UNL1       -0.4182
     28 C         143.0778  136.7545  155.1559 C.3     1  UNL1        0.0420
     29 C         143.2920  135.2750  155.2796 C.3     1  UNL1        0.0585
     30 C         142.6680  134.2186  154.4167 C.3     1  UNL1        0.0175
     31 C         143.1581  132.8829  154.8917 C.3     1  UNL1        0.0199
     32 C         144.0850  133.1138  156.0483 C.3     1  UNL1        0.0855
     33 N         144.1677  134.5922  156.2880 N.3     1  UNL1       -0.2971
     34 H         145.1317  134.9071  156.1789 H       1  UNL1        0.1233
     35 C         144.8031  132.0526  156.8282 C.3     1  UNL1        0.1470
     36 O         145.8184  132.4396  157.8623 O.3     1  UNL1       -0.3787
     37 H         145.8890  133.4062  157.9002 H       1  UNL1        0.2108
     38 C         144.5060  130.6044  156.5739 C.ar    1  UNL1        0.0055
     39 C         143.7604  129.8008  157.5978 C.ar    1  UNL1       -0.0019
     40 C         143.4632  128.3528  157.3435 C.ar    1  UNL1       -0.0002
     41 C         143.9117  127.7083  156.0655 C.ar    1  UNL1       -0.0000
     42 C         144.6572  128.5119  155.0416 C.ar    1  UNL1       -0.0002
     43 C         144.9544  129.9600  155.2959 C.ar    1  UNL1       -0.0019
@<TRIPOS>BOND
     1    22    23    1
     2    23    24   ar
     3    24    25   ar
     4    25    26   ar
     5    26    16    1
     6    16    17   ar
     7    17    18   ar
     8    18    19   ar
     9    19    20   ar
    10    20    15    1
    11    15     7    1
    12     7     8    1
    13     8     9    1
    14     9    10    1
    15    10    11   am
    16    11    12    2
    17    11     1    1
    18     1     2   ar
    19     2     3   ar
    20     3     4   ar
    21     4    28    1
    22    29    28    1
    23    29    30    1
    24    30    31    1
    25    32    31    1
    26    32    35    1
    27    35    36    1
    28    35    38    1
    29    38    39   ar
    30    39    40   ar
    31    40    41   ar
    32    41    42   ar
    33    42    43   ar
    34    32    33    1
    35     4     5   ar
    36     5     6   ar
    37    10    13    1
    38    13    14    1
    39    20    21   ar
    40    26    27   ar
    41    27    23   ar
    42    21    16   ar
    43    14     7    1
    44     6     1   ar
    45    33    29    1
    46    43    38   ar
    47    36    37    1
    48    33    34    1
@<TRIPOS>MOLECULE
*****
 43 48 0 0 0
SMALL
GASTEIGER

@<TRIPOS>ATOM
      1 C         140.3077  138.6082  156.4008 C.ar    1  UNL1        0.0536
      2 C         139.7768  139.9915  156.1669 C.ar    1  UNL1        0.0042
      3 C         138.5544  140.1925  155.3212 C.ar    1  UNL1       -0.0041
      4 C         137.8628  139.0103  154.7094 C.ar    1  UNL1       -0.0208
      5 C         138.3937  137.6271  154.9434 C.ar    1  UNL1       -0.0041
      6 C         139.6162  137.4260  155.7891 C.ar    1  UNL1        0.0042
      7 N         141.1222  137.8389  161.6919 N.3     1  UNL1       -0.2647
      8 C         139.8997  138.0400  160.8461 C.3     1  UNL1        0.0942
      9 C         140.0357  138.2294  159.3644 C.3     1  UNL1        0.1111
     10 N         141.3941  138.2177  158.7283 N.am    1  UNL1       -0.2732
     11 C         141.5301  138.4071  157.2465 C.2     1  UNL1        0.2491
     12 O         142.8885  138.3954  156.6105 O.2     1  UNL1       -0.2699
     13 C         142.6165  138.0166  159.5740 C.3     1  UNL1        0.1111
     14 C         142.4806  137.8272  161.0558 C.3     1  UNL1        0.0942
     15 C         140.9861  137.6495  163.1736 C.3     1  UNL1        0.1187
     16 C         139.3100  140.9717  164.5535 C.ar    1  UNL1        0.1358
     17 C         138.3534  140.4086  165.5624 C.ar    1  UNL1        0.0239
     18 C         138.2744  138.9259  165.7750 C.ar    1  UNL1        0.0030
     19 C         139.1520  138.0062  164.9788 C.ar    1  UNL1        0.0161
     20 C         140.1086  138.5692  163.9699 C.ar    1  UNL1        0.0753
     21 N         140.1875  140.0520  163.7572 N.ar    1  UNL1       -0.2435
     22 C         139.8348  145.6934  162.2489 C.3     1  UNL1        0.0967
     23 C         139.6302  144.6248  163.2815 C.ar    1  UNL1        0.2270
     24 N         139.3909  144.8475  164.7455 N.ar    1  UNL1       -0.1113
     25 N         139.2418  143.5062  165.4001 N.ar    1  UNL1       -0.1056
     26 C         139.3890  142.4544  164.3407 C.ar    1  UNL1        0.2673
     27 O         139.6290  143.1458  163.0314 O.2     1  UNL1       -0.4182
     28 C         136.6404  139.2114  153.8637 C.3     1  UNL1        0.0420
     29 C         135.3770  139.7313  154.4832 C.3     1  UNL1        0.0585
     30 C         134.6418  140.9738  154.0762 C.3     1  UNL1        0.0175
     31 C         133.4375  141.1103  154.9599 C.3     1  UNL1        0.0199
     32 C         133.4283  139.9521  155.9131 C.3     1  UNL1        0.0855
     33 N         134.6270  139.0999  155.6185 N.3     1  UNL1       -0.2971
     34 H         134.3279  138.1607  155.3559 H       1  UNL1        0.1233
     35 C         132.4009  139.6919  156.9745 C.3     1  UNL1        0.1470
     36 O         132.7958  139.7118  158.4214 O.3     1  UNL1       -0.3787
     37 H         133.7432  139.9062  158.4954 H       1  UNL1        0.2108
     38 C         130.9786  139.4118  156.5890 C.ar    1  UNL1        0.0055
     39 C         130.4682  138.0013  156.5783 C.ar    1  UNL1       -0.0019
     40 C         129.0460  137.7213  156.1928 C.ar    1  UNL1       -0.0002
     41 C         128.1340  138.8516  155.8180 C.ar    1  UNL1       -0.0000
     42 C         128.6443  140.2621  155.8287 C.ar    1  UNL1       -0.0002
     43 C         130.0666  140.5422  156.2142 C.ar    1  UNL1       -0.0019
@<TRIPOS>BOND
     1    22    23    1
     2    23    24   ar
     3    24    25   ar
     4    25    26   ar
     5    26    16    1
     6    16    17   ar
     7    17    18   ar
     8    18    19   ar
     9    19    20   ar
    10    20    15    1
    11    15     7    1
    12     7     8    1
    13     8     9    1
    14     9    10    1
    15    10    11   am
    16    11    12    2
    17    11     1    1
    18     1     2   ar
    19     2     3   ar
    20     3     4   ar
    21     4    28    1
    22    29    28    1
    23    29    30    1
    24    30    31    1
    25    32    31    1
    26    32    35    1
    27    35    36    1
    28    35    38    1
    29    38    39   ar
    30    39    40   ar
    31    40    41   ar
    32    41    42   ar
    33    42    43   ar
    34    32    33    1
    35     4     5   ar
    36     5     6   ar
    37    10    13    1
    38    13    14    1
    39    20    21   ar
    40    26    27   ar
    41    27    23   ar
    42    21    16   ar
    43    14     7    1
    44     6     1   ar
    45    33    29    1
    46    43    38   ar
    47    36    37    1
    48    33    34    1
@<TRIPOS>MOLECULE
*****
 43 48 0 0 0
SMALL
GASTEIGER

@<TRIPOS>ATOM
      1 C         141.9347  138.7459  159.7535 C.ar    1  UNL1        0.0536
      2 C         140.5342  139.2819  159.7170 C.ar    1  UNL1        0.0042
      3 C         139.6154  139.0594  160.8816 C.ar    1  UNL1       -0.0041
      4 C         140.0971  138.3009  162.0827 C.ar    1  UNL1       -0.0208
      5 C         141.4976  137.7649  162.1192 C.ar    1  UNL1       -0.0041
      6 C         142.4164  137.9874  160.9546 C.ar    1  UNL1        0.0042
      7 N         142.1965  136.7244  154.7439 N.3     1  UNL1       -0.2647
      8 C         141.2777  136.5020  155.9086 C.3     1  UNL1        0.0942
      9 C         141.4967  137.2499  157.1902 C.3     1  UNL1        0.1111
     10 N         142.6345  138.2204  157.3072 N.am    1  UNL1       -0.2732
     11 C         142.8535  138.9684  158.5889 C.2     1  UNL1        0.2491
     12 O         143.9912  139.9388  158.7059 O.2     1  UNL1       -0.2699
     13 C         143.5533  138.4429  156.1426 C.3     1  UNL1        0.1111
     14 C         143.3343  137.6949  154.8609 C.3     1  UNL1        0.0942
     15 C         141.9776  135.9765  153.4623 C.3     1  UNL1        0.1187
     16 C         142.9287  132.2849  154.5657 C.ar    1  UNL1        0.1358
     17 C         142.5530  131.5152  153.3342 C.ar    1  UNL1        0.0239
     18 C         141.9854  132.2327  152.1455 C.ar    1  UNL1        0.0030
     19 C         141.7936  133.7198  152.1882 C.ar    1  UNL1        0.0161
     20 C         142.1694  134.4894  153.4196 C.ar    1  UNL1        0.0753
     21 N         142.7369  133.7720  154.6084 N.ar    1  UNL1       -0.2435
     22 C         143.4890  128.9555  158.6256 C.3     1  UNL1        0.0967
     23 C         143.7538  130.0371  157.6206 C.ar    1  UNL1        0.2270
     24 N         144.9857  130.8898  157.5470 N.ar    1  UNL1       -0.1113
     25 N         144.8266  131.8356  156.3937 N.ar    1  UNL1       -0.1056
     26 C         143.4963  131.5674  155.7545 C.ar    1  UNL1        0.2673
     27 O         142.8334  130.4559  156.5127 O.2     1  UNL1       -0.4182
     28 C         139.1783  138.0784  163.2473 C.3     1  UNL1        0.0420
     29 C         139.2572  138.9755  164.4469 C.3     1  UNL1        0.0585
     30 C         138.8728  138.6080  165.8495 C.3     1  UNL1        0.0175
     31 C         139.1123  139.8029  166.7240 C.3     1  UNL1        0.0199
     32 C         139.6448  140.9089  165.8619 C.3     1  UNL1        0.0855
     33 N         139.7344  140.3975  164.4546 N.3     1  UNL1       -0.2971
     34 H         140.7010  140.4400  164.1317 H       1  UNL1        0.1233
     35 C         140.0216  142.2847  166.3257 C.3     1  UNL1        0.1470
     36 O         139.4878  143.4899  165.6098 O.3     1  UNL1       -0.3787
     37 H         138.9195  143.2053  164.8770 H       1  UNL1        0.2108
     38 C         140.9323  142.4554  167.5054 C.ar    1  UNL1        0.0055
     39 C         140.4291  143.1225  168.7510 C.ar    1  UNL1       -0.0019
     40 C         141.3396  143.2932  169.9306 C.ar    1  UNL1       -0.0002
     41 C         142.7536  142.7968  169.8646 C.ar    1  UNL1       -0.0000
     42 C         143.2568  142.1296  168.6190 C.ar    1  UNL1       -0.0002
     43 C         142.3461  141.9590  167.4393 C.ar    1  UNL1       -0.0019
@<TRIPOS>BOND
     1    22    23    1
     2    23    24   ar
     3    24    25   ar
     4    25    26   ar
     5    26    16    1
     6    16    17   ar
     7    17    18   ar
     8    18    19   ar
     9    19    20   ar
    10    20    15    1
    11    15     7    1
    12     7     8    1
    13     8     9    1
    14     9    10    1
    15    10    11   am
    16    11    12    2
    17    11     1    1
    18     1     2   ar
    19     2     3   ar
    20     3     4   ar
    21     4    28    1
    22    29    28    1
    23    29    30    1
    24    30    31    1
    25    32    31    1
    26    32    35    1
    27    35    36    1
    28    35    38    1
    29    38    39   ar
    30    39    40   ar
    31    40    41   ar
    32    41    42   ar
    33    42    43   ar
    34    32    33    1
    35     4     5   ar
    36     5     6   ar
    37    10    13    1
    38    13    14    1
    39    20    21   ar
    40    26    27   ar
    41    27    23   ar
    42    21    16   ar
    43    14     7    1
    44     6     1   ar
    45    33    29    1
    46    43    38   ar
    47    36    37    1
    48    33    34    1
@<TRIPOS>MOLECULE
*****
 43 48 0 0 0
SMALL
GASTEIGER

@<TRIPOS>ATOM
      1 C         138.1445  140.5878  159.6062 C.ar    1  UNL1        0.0536
      2 C         138.4539  141.9752  160.0854 C.ar    1  UNL1        0.0042
      3 C         138.3574  142.3031  161.5459 C.ar    1  UNL1       -0.0041
      4 C         137.9516  141.2438  162.5273 C.ar    1  UNL1       -0.0208
      5 C         137.6422  139.8564  162.0481 C.ar    1  UNL1       -0.0041
      6 C         137.7387  139.5285  160.5875 C.ar    1  UNL1        0.0042
      7 N         141.8743  138.1365  156.5517 N.3     1  UNL1       -0.2647
      8 C         141.7778  138.4645  158.0123 C.3     1  UNL1        0.0942
      9 C         140.5667  139.1723  158.5435 C.3     1  UNL1        0.1111
     10 N         139.4521  139.5520  157.6144 N.am    1  UNL1       -0.2732
     11 C         138.2410  140.2598  158.1457 C.2     1  UNL1        0.2491
     12 O         137.1263  140.6396  157.2165 O.2     1  UNL1       -0.2699
     13 C         139.5485  139.2240  156.1539 C.3     1  UNL1        0.1111
     14 C         140.7597  138.5162  155.6225 C.3     1  UNL1        0.0942
     15 C         143.0854  137.4287  156.0204 C.3     1  UNL1        0.1187
     16 C         143.2978  133.4698  155.8427 C.ar    1  UNL1        0.1358
     17 C         142.7332  133.2166  154.4763 C.ar    1  UNL1        0.0239
     18 C         142.2859  134.3675  153.6246 C.ar    1  UNL1        0.0030
     19 C         142.4033  135.7715  154.1393 C.ar    1  UNL1        0.0161
     20 C         142.9680  136.0247  155.5057 C.ar    1  UNL1        0.0753
     21 N         143.4152  134.8738  156.3574 N.ar    1  UNL1       -0.2435
     22 C         143.4773  128.7687  158.2404 C.3     1  UNL1        0.0967
     23 C         143.8276  130.1581  157.7966 C.ar    1  UNL1        0.2270
     24 N         145.0393  130.9378  158.2138 N.ar    1  UNL1       -0.1113
     25 N         144.9882  132.2732  157.5327 N.ar    1  UNL1       -0.1056
     26 C         143.7451  132.3189  156.6945 C.ar    1  UNL1        0.2673
     27 O         143.0278  131.0116  156.8576 O.2     1  UNL1       -0.4182
     28 C         137.8551  141.5718  163.9878 C.3     1  UNL1        0.0420
     29 C         138.8244  140.9648  164.9584 C.3     1  UNL1        0.0585
     30 C         138.5038  139.9249  165.9908 C.3     1  UNL1        0.0175
     31 C         139.7657  139.6085  166.7375 C.3     1  UNL1        0.0199
     32 C         140.8661  140.4529  166.1666 C.3     1  UNL1        0.0855
     33 N         140.2844  141.2911  165.0671 N.3     1  UNL1       -0.2971
     34 H         140.7528  141.0798  164.1860 H       1  UNL1        0.1233
     35 C         142.2971  140.4582  166.6163 C.3     1  UNL1        0.1470
     36 O         142.6471  140.0257  168.0093 O.3     1  UNL1       -0.3787
     37 H         141.8383  139.7765  168.4833 H       1  UNL1        0.2108
     38 C         143.3781  140.8959  165.6730 C.ar    1  UNL1        0.0055
     39 C         144.0915  139.8827  164.8277 C.ar    1  UNL1       -0.0019
     40 C         145.1725  140.3204  163.8844 C.ar    1  UNL1       -0.0002
     41 C         145.5401  141.7714  163.7864 C.ar    1  UNL1       -0.0000
     42 C         144.8267  142.7845  164.6317 C.ar    1  UNL1       -0.0002
     43 C         143.7457  142.3468  165.5750 C.ar    1  UNL1       -0.0019
@<TRIPOS>BOND
     1    22    23    1
     2    23    24   ar
     3    24    25   ar
     4    25    26   ar
     5    26    16    1
     6    16    17   ar
     7    17    18   ar
     8    18    19   ar
     9    19    20   ar
    10    20    15    1
    11    15     7    1
    12     7     8    1
    13     8     9    1
    14     9    10    1
    15    10    11   am
    16    11    12    2
    17    11     1    1
    18     1     2   ar
    19     2     3   ar
    20     3     4   ar
    21     4    28    1
    22    29    28    1
    23    29    30    1
    24    30    31    1
    25    32    31    1
    26    32    35    1
    27    35    36    1
    28    35    38    1
    29    38    39   ar
    30    39    40   ar
    31    40    41   ar
    32    41    42   ar
    33    42    43   ar
    34    32    33    1
    35     4     5   ar
    36     5     6   ar
    37    10    13    1
    38    13    14    1
    39    20    21   ar
    40    26    27   ar
    41    27    23   ar
    42    21    16   ar
    43    14     7    1
    44     6     1   ar
    45    33    29    1
    46    43    38   ar
    47    36    37    1
    48    33    34    1
@<TRIPOS>MOLECULE
*****
 43 48 0 0 0
SMALL
GASTEIGER

@<TRIPOS>ATOM
      1 C         139.7220  143.4186  158.6909 C.ar    1  UNL1        0.0536
      2 C         138.5099  142.5919  159.0029 C.ar    1  UNL1        0.0042
      3 C         137.8339  141.8115  157.9147 C.ar    1  UNL1       -0.0041
      4 C         138.3700  141.8578  156.5145 C.ar    1  UNL1       -0.0208
      5 C         139.5821  142.6845  156.2025 C.ar    1  UNL1       -0.0041
      6 C         140.2581  143.4649  157.2907 C.ar    1  UNL1        0.0042
      7 N         143.3830  142.1799  162.4741 N.3     1  UNL1       -0.2647
      8 C         142.7070  141.3996  161.3859 C.3     1  UNL1        0.0942
      9 C         141.7120  142.0726  160.4876 C.3     1  UNL1        0.1111
     10 N         141.3930  143.5259  160.6774 N.am    1  UNL1       -0.2732
     11 C         140.3980  144.1989  159.7790 C.2     1  UNL1        0.2491
     12 O         140.0790  145.6523  159.9687 O.2     1  UNL1       -0.2699
     13 C         142.0690  144.3063  161.7655 C.3     1  UNL1        0.1111
     14 C         143.0640  143.6333  162.6639 C.3     1  UNL1        0.0942
     15 C         144.3780  141.5069  163.3724 C.3     1  UNL1        0.1187
     16 C         142.5468  140.5324  166.7558 C.ar    1  UNL1        0.1358
     17 C         142.9575  139.0966  166.8970 C.ar    1  UNL1        0.0239
     18 C         143.8417  138.4644  165.8634 C.ar    1  UNL1        0.0030
     19 C         144.3152  139.2678  164.6886 C.ar    1  UNL1        0.0161
     20 C         143.9045  140.7035  164.5473 C.ar    1  UNL1        0.0753
     21 N         143.0203  141.3358  165.5809 N.ar    1  UNL1       -0.2435
     22 C         140.3436  144.0770  169.9904 C.3     1  UNL1        0.0967
     23 C         140.6499  142.7940  169.2762 C.ar    1  UNL1        0.2270
     24 N         139.9539  141.4815  169.4837 N.ar    1  UNL1       -0.1113
     25 N         140.5798  140.4746  168.5649 N.ar    1  UNL1       -0.1056
     26 C         141.6626  141.1647  167.7894 C.ar    1  UNL1        0.2673
     27 O         141.7059  142.5982  168.2290 O.2     1  UNL1       -0.4182
     28 C         137.6940  141.0775  155.4264 C.3     1  UNL1        0.0420
     29 C         136.2202  140.8087  155.5009 C.3     1  UNL1        0.0585
     30 C         135.2231  141.0523  154.4070 C.3     1  UNL1        0.0175
     31 C         133.8714  140.6433  154.9124 C.3     1  UNL1        0.0199
     32 C         134.0329  140.1469  156.3186 C.3     1  UNL1        0.0855
     33 N         135.4846  140.2492  156.6823 N.3     1  UNL1       -0.2971
     34 H         135.8499  139.3248  156.9115 H       1  UNL1        0.1233
     35 C         132.9356  139.6377  157.2055 C.3     1  UNL1        0.1470
     36 O         133.2238  139.3044  158.6393 O.3     1  UNL1       -0.3787
     37 H         134.1600  139.4737  158.8287 H       1  UNL1        0.2108
     38 C         131.5499  139.4618  156.6585 C.ar    1  UNL1        0.0055
     39 C         130.7752  140.6541  156.1808 C.ar    1  UNL1       -0.0019
     40 C         129.3897  140.4782  155.6339 C.ar    1  UNL1       -0.0002
     41 C         128.7788  139.1100  155.5646 C.ar    1  UNL1       -0.0000
     42 C         129.5535  137.9178  156.0424 C.ar    1  UNL1       -0.0002
     43 C         130.9391  138.0937  156.5893 C.ar    1  UNL1       -0.0019
@<TRIPOS>BOND
     1    22    23    1
     2    23    24   ar
     3    24    25   ar
     4    25    26   ar
     5    26    16    1
     6    16    17   ar
     7    17    18   ar
     8    18    19   ar
     9    19    20   ar
    10    20    15    1
    11    15     7    1
    12     7     8    1
    13     8     9    1
    14     9    10    1
    15    10    11   am
    16    11    12    2
    17    11     1    1
    18     1     2   ar
    19     2     3   ar
    20     3     4   ar
    21     4    28    1
    22    29    28    1
    23    29    30    1
    24    30    31    1
    25    32    31    1
    26    32    35    1
    27    35    36    1
    28    35    38    1
    29    38    39   ar
    30    39    40   ar
    31    40    41   ar
    32    41    42   ar
    33    42    43   ar
    34    32    33    1
    35     4     5   ar
    36     5     6   ar
    37    10    13    1
    38    13    14    1
    39    20    21   ar
    40    26    27   ar
    41    27    23   ar
    42    21    16   ar
    43    14     7    1
    44     6     1   ar
    45    33    29    1
    46    43    38   ar
    47    36    37    1
    48    33    34    1
@<TRIPOS>MOLECULE
*****
 43 48 0 0 0
SMALL
GASTEIGER

@<TRIPOS>ATOM
      1 C         142.0550  138.1237  156.6129 C.ar    1  UNL1        0.0536
      2 C         143.4015  137.6597  156.1424 C.ar    1  UNL1        0.0042
      3 C         143.5112  136.4600  155.2487 C.ar    1  UNL1       -0.0041
      4 C         142.2744  135.7243  154.8256 C.ar    1  UNL1       -0.0208
      5 C         140.9278  136.1883  155.2962 C.ar    1  UNL1       -0.0041
      6 C         140.8181  137.3881  156.1899 C.ar    1  UNL1        0.0042
      7 N         142.3445  138.8528  161.9641 N.3     1  UNL1       -0.2647
      8 C         142.4542  137.6530  161.0704 C.3     1  UNL1        0.0942
      9 C         142.3211  137.8099  159.5846 C.3     1  UNL1        0.1111
     10 N         142.0783  139.1666  158.9925 N.am    1  UNL1       -0.2732
     11 C         141.9452  139.3234  157.5066 C.2     1  UNL1        0.2491
     12 O         141.7025  140.6801  156.9144 O.2     1  UNL1       -0.2699
     13 C         141.9686  140.3663  159.8861 C.3     1  UNL1        0.1111
     14 C         142.1017  140.2094  161.3720 C.3     1  UNL1        0.0942
     15 C         142.4775  138.6958  163.4499 C.3     1  UNL1        0.1187
     16 C         139.9622  139.5061  166.4108 C.ar    1  UNL1        0.1358
     17 C         138.8009  138.6305  166.0438 C.ar    1  UNL1        0.0239
     18 C         138.8652  137.7767  164.8122 C.ar    1  UNL1        0.0030
     19 C         140.0907  137.7985  163.9476 C.ar    1  UNL1        0.0161
     20 C         141.2520  138.6741  164.3146 C.ar    1  UNL1        0.0753
     21 N         141.1878  139.5279  165.5461 N.ar    1  UNL1       -0.2435
     22 C         140.5262  143.5616  169.7448 C.3     1  UNL1        0.0967
     23 C         140.1573  142.2241  169.1749 C.ar    1  UNL1        0.2270
     24 N         139.4411  141.1237  169.9004 N.ar    1  UNL1       -0.1113
     25 N         139.2809  139.9716  168.9533 N.ar    1  UNL1       -0.1056
     26 C         139.8980  140.3600  167.6424 C.ar    1  UNL1        0.2673
     27 O         140.4396  141.7520  167.7794 O.2     1  UNL1       -0.4182
     28 C         142.3841  134.5246  153.9320 C.3     1  UNL1        0.0420
     29 C         142.3809  133.1461  154.5233 C.3     1  UNL1        0.0585
     30 C         141.1669  132.3608  154.9227 C.3     1  UNL1        0.0175
     31 C         141.6268  131.0402  155.4654 C.3     1  UNL1        0.0199
     32 C         143.1251  131.0092  155.4013 C.3     1  UNL1        0.0855
     33 N         143.5912  132.3107  154.8191 N.3     1  UNL1       -0.2971
     34 H         144.1115  132.1385  153.9589 H       1  UNL1        0.1233
     35 C         144.0033  129.8758  155.8420 C.3     1  UNL1        0.1470
     36 O         145.3204  129.6402  155.1641 O.3     1  UNL1       -0.3787
     37 H         145.4498  130.3044  154.4691 H       1  UNL1        0.2108
     38 C         143.5642  128.9781  156.9607 C.ar    1  UNL1        0.0055
     39 C         143.0150  127.6156  156.6573 C.ar    1  UNL1       -0.0019
     40 C         142.5760  126.7179  157.7759 C.ar    1  UNL1       -0.0002
     41 C         142.6862  127.1826  159.1978 C.ar    1  UNL1       -0.0000
     42 C         143.2355  128.5450  159.5011 C.ar    1  UNL1       -0.0002
     43 C         143.6745  129.4428  158.3825 C.ar    1  UNL1       -0.0019
@<TRIPOS>BOND
     1    22    23    1
     2    23    24   ar
     3    24    25   ar
     4    25    26   ar
     5    26    16    1
     6    16    17   ar
     7    17    18   ar
     8    18    19   ar
     9    19    20   ar
    10    20    15    1
    11    15     7    1
    12     7     8    1
    13     8     9    1
    14     9    10    1
    15    10    11   am
    16    11    12    2
    17    11     1    1
    18     1     2   ar
    19     2     3   ar
    20     3     4   ar
    21     4    28    1
    22    29    28    1
    23    29    30    1
    24    30    31    1
    25    32    31    1
    26    32    35    1
    27    35    36    1
    28    35    38    1
    29    38    39   ar
    30    39    40   ar
    31    40    41   ar
    32    41    42   ar
    33    42    43   ar
    34    32    33    1
    35     4     5   ar
    36     5     6   ar
    37    10    13    1
    38    13    14    1
    39    20    21   ar
    40    26    27   ar
    41    27    23   ar
    42    21    16   ar
    43    14     7    1
    44     6     1   ar
    45    33    29    1
    46    43    38   ar
    47    36    37    1
    48    33    34    1
