@<TRIPOS>MOLECULE
*****
 30 33 0 0 0
SMALL
GASTEIGER

@<TRIPOS>ATOM
      1 C         139.4440  139.5074  164.3592 C.3     1  UNL1        0.2095
      2 N         139.6578  139.2315  165.8180 N.pl3   1  UNL1       -0.2170
      3 C         139.8288  140.5469  166.5183 C.2     1  UNL1        0.3340
      4 N         139.7206  141.6358  165.4924 N.2     1  UNL1       -0.0601
      5 C         139.4828  140.9934  164.1580 C.3     1  UNL1        0.2500
      6 H         139.6818  138.3431  166.2414 H       1  UNL1        0.2923
      7 C         139.2426  140.6465  162.7185 C.ar    1  UNL1        0.0297
      8 C         137.8492  140.3721  162.2357 C.ar    1  UNL1        0.0025
      9 C         137.6090  140.0251  160.7962 C.ar    1  UNL1        0.0295
     10 C         138.7621  139.9526  159.8397 C.ar    1  UNL1        0.1401
     11 F         138.5219  139.6056  158.4003 F       1  UNL1       -0.2042
     12 C         140.1556  140.2269  160.3226 C.ar    1  UNL1        0.0295
     13 C         140.3958  140.5739  161.7620 C.ar    1  UNL1        0.0025
     14 C         139.4714  142.4068  163.6558 C.ar    1  UNL1        0.0297
     15 C         138.1668  143.0999  163.3959 C.ar    1  UNL1        0.0025
     16 C         138.1554  144.5133  162.8937 C.ar    1  UNL1        0.0295
     17 C         139.4486  145.2336  162.6515 C.ar    1  UNL1        0.1401
     18 F         139.4371  146.6471  162.1493 F       1  UNL1       -0.2042
     19 C         140.7532  144.5406  162.9114 C.ar    1  UNL1        0.0295
     20 C         140.7646  143.1271  163.4136 C.ar    1  UNL1        0.0025
     21 C         140.0663  140.7395  167.9869 C.ar    1  UNL1        0.1633
     22 C         141.0918  141.7279  168.4575 C.ar    1  UNL1        0.0370
     23 C         141.3292  141.9205  169.9260 C.ar    1  UNL1        0.0717
     24 C         140.5411  141.1247  170.9239 C.ar    1  UNL1        0.0310
     25 C         139.5156  140.1364  170.4533 C.ar    1  UNL1        0.0998
     26 N         139.2782  139.9438  168.9848 N.ar    1  UNL1       -0.2364
     27 C         142.3547  142.9088  170.3967 C.1     1  UNL1        0.1005
     28 N         143.3801  143.8972  170.8674 N.1     1  UNL1       -0.1908
     29 C         140.1595  137.3069  163.1778 C.3     1  UNL1        0.0044
     30 C         139.2291  138.4782  163.2894 C.3     1  UNL1        0.0516
@<TRIPOS>BOND
     1    29    30    1
     2     1    30    1
     3     1     2    1
     4     2     3    1
     5     3    21    1
     6    21    22   ar
     7    22    23   ar
     8    23    27    1
     9    27    28    3
    10    23    24   ar
    11    24    25   ar
    12    25    26   ar
    13     3     4    2
    14     4     5    1
    15     5     7    1
    16     7     8   ar
    17     8     9   ar
    18     9    10   ar
    19    10    11    1
    20    10    12   ar
    21    12    13   ar
    22     5    14    1
    23    14    15   ar
    24    15    16   ar
    25    16    17   ar
    26    17    18    1
    27    17    19   ar
    28    19    20   ar
    29     5     1    1
    30    13     7   ar
    31    20    14   ar
    32    26    21   ar
    33     2     6    1
@<TRIPOS>MOLECULE
*****
 30 33 0 0 0
SMALL
GASTEIGER

@<TRIPOS>ATOM
      1 C         143.5450  140.6650  164.0697 C.3     1  UNL1        0.2095
      2 N         143.6514  141.0120  165.5251 N.pl3   1  UNL1       -0.2170
      3 C         142.3247  140.7323  166.1667 C.2     1  UNL1        0.3340
      4 N         141.3982  140.2124  165.1077 N.2     1  UNL1       -0.0601
      5 C         142.1524  140.1708  163.8118 C.3     1  UNL1        0.2500
      6 H         144.4516  141.3619  165.9796 H       1  UNL1        0.2923
      7 C         142.6366  140.0193  162.4002 C.ar    1  UNL1        0.0297
      8 C         142.4993  141.1584  161.4339 C.ar    1  UNL1        0.0025
      9 C         142.9835  141.0070  160.0222 C.ar    1  UNL1        0.0295
     10 C         143.6049  139.7165  159.5769 C.ar    1  UNL1        0.1401
     11 F         144.0892  139.5650  158.1654 F       1  UNL1       -0.2042
     12 C         143.7422  138.5773  160.5432 C.ar    1  UNL1        0.0295
     13 C         143.2580  138.7288  161.9548 C.ar    1  UNL1        0.0025
     14 C         140.8610  139.6450  163.2586 C.ar    1  UNL1        0.0297
     15 C         140.5253  138.1891  163.3926 C.ar    1  UNL1        0.0025
     16 C         139.2340  137.6633  162.8394 C.ar    1  UNL1        0.0295
     17 C         138.2784  138.5932  162.1524 C.ar    1  UNL1        0.1401
     18 F         136.9870  138.0673  161.5993 F       1  UNL1       -0.2042
     19 C         138.6141  140.0489  162.0185 C.ar    1  UNL1        0.0295
     20 C         139.9054  140.5749  162.5716 C.ar    1  UNL1        0.0025
     21 C         141.9842  140.9365  167.6132 C.ar    1  UNL1        0.1633
     22 C         141.3973  142.2396  168.0688 C.ar    1  UNL1        0.0370
     23 C         141.0569  142.4438  169.5153 C.ar    1  UNL1        0.0717
     24 C         141.3034  141.3450  170.5062 C.ar    1  UNL1        0.0310
     25 C         141.8903  140.0420  170.0506 C.ar    1  UNL1        0.0998
     26 N         142.2307  139.8377  168.6041 N.ar    1  UNL1       -0.2364
     27 C         140.4699  143.7469  169.9709 C.1     1  UNL1        0.1005
     28 N         139.8830  145.0499  170.4265 N.1     1  UNL1       -0.1908
     29 C         145.7571  141.7663  163.2677 C.3     1  UNL1        0.0044
     30 C         144.6389  140.7903  163.0512 C.3     1  UNL1        0.0516
@<TRIPOS>BOND
     1    29    30    1
     2     1    30    1
     3     1     2    1
     4     2     3    1
     5     3    21    1
     6    21    22   ar
     7    22    23   ar
     8    23    27    1
     9    27    28    3
    10    23    24   ar
    11    24    25   ar
    12    25    26   ar
    13     3     4    2
    14     4     5    1
    15     5     7    1
    16     7     8   ar
    17     8     9   ar
    18     9    10   ar
    19    10    11    1
    20    10    12   ar
    21    12    13   ar
    22     5    14    1
    23    14    15   ar
    24    15    16   ar
    25    16    17   ar
    26    17    18    1
    27    17    19   ar
    28    19    20   ar
    29     5     1    1
    30    13     7   ar
    31    20    14   ar
    32    26    21   ar
    33     2     6    1
@<TRIPOS>MOLECULE
*****
 30 33 0 0 0
SMALL
GASTEIGER

@<TRIPOS>ATOM
      1 C         143.1196  141.2420  164.2192 C.3     1  UNL1        0.2095
      2 N         143.0946  141.6831  165.6527 N.pl3   1  UNL1       -0.2170
      3 C         141.7770  141.2732  166.2408 C.2     1  UNL1        0.3340
      4 N         140.9877  140.5787  165.1709 N.2     1  UNL1       -0.0601
      5 C         141.8175  140.5595  163.9215 C.3     1  UNL1        0.2500
      6 H         143.8162  142.1582  166.1246 H       1  UNL1        0.2923
      7 C         142.4005  140.3902  162.5498 C.ar    1  UNL1        0.0297
      8 C         143.2026  139.1659  162.2218 C.ar    1  UNL1        0.0025
      9 C         143.7858  138.9965  160.8501 C.ar    1  UNL1        0.0295
     10 C         143.5667  140.0514  159.8066 C.ar    1  UNL1        0.1401
     11 F         144.1498  139.8821  158.4350 F       1  UNL1       -0.2042
     12 C         142.7645  141.2759  160.1346 C.ar    1  UNL1        0.0295
     13 C         142.1815  141.4452  161.5063 C.ar    1  UNL1        0.0025
     14 C         140.6372  139.8416  163.3369 C.ar    1  UNL1        0.0297
     15 C         139.5625  140.6151  162.6323 C.ar    1  UNL1        0.0025
     16 C         138.3823  139.8972  162.0478 C.ar    1  UNL1        0.0295
     17 C         138.2768  138.4057  162.1679 C.ar    1  UNL1        0.1401
     18 F         137.0965  137.6878  161.5833 F       1  UNL1       -0.2042
     19 C         139.3515  137.6322  162.8725 C.ar    1  UNL1        0.0295
     20 C         140.5318  138.3501  163.4571 C.ar    1  UNL1        0.0025
     21 C         141.3276  141.5152  167.6514 C.ar    1  UNL1        0.1633
     22 C         140.1515  140.7652  168.2030 C.ar    1  UNL1        0.0370
     23 C         139.7022  141.0072  169.6135 C.ar    1  UNL1        0.0717
     24 C         140.4289  141.9993  170.4723 C.ar    1  UNL1        0.0310
     25 C         141.6050  142.7493  169.9207 C.ar    1  UNL1        0.0998
     26 N         142.0543  142.5072  168.5103 N.ar    1  UNL1       -0.2364
     27 C         138.5261  140.2572  170.1651 C.1     1  UNL1        0.1005
     28 N         137.3500  139.5072  170.7168 N.1     1  UNL1       -0.1908
     29 C         145.6248  141.7572  163.7628 C.3     1  UNL1        0.0044
     30 C         144.2485  141.4474  163.2531 C.3     1  UNL1        0.0516
@<TRIPOS>BOND
     1    29    30    1
     2     1    30    1
     3     1     2    1
     4     2     3    1
     5     3    21    1
     6    21    22   ar
     7    22    23   ar
     8    23    27    1
     9    27    28    3
    10    23    24   ar
    11    24    25   ar
    12    25    26   ar
    13     3     4    2
    14     4     5    1
    15     5     7    1
    16     7     8   ar
    17     8     9   ar
    18     9    10   ar
    19    10    11    1
    20    10    12   ar
    21    12    13   ar
    22     5    14    1
    23    14    15   ar
    24    15    16   ar
    25    16    17   ar
    26    17    18    1
    27    17    19   ar
    28    19    20   ar
    29     5     1    1
    30    13     7   ar
    31    20    14   ar
    32    26    21   ar
    33     2     6    1
@<TRIPOS>MOLECULE
*****
 30 33 0 0 0
SMALL
GASTEIGER

@<TRIPOS>ATOM
      1 C         142.0073  142.1397  165.1288 C.3     1  UNL1        0.2095
      2 N         141.9012  142.8583  163.8165 N.pl3   1  UNL1       -0.2170
      3 C         140.7988  142.2186  163.0255 C.2     1  UNL1        0.3340
      4 N         140.2237  141.1046  163.8490 N.2     1  UNL1       -0.0601
      5 C         140.9705  141.0558  165.1489 C.3     1  UNL1        0.2500
      6 H         142.4573  143.6167  163.5254 H       1  UNL1        0.2923
      7 C         141.5249  140.7679  166.5126 C.ar    1  UNL1        0.0297
      8 C         142.4453  139.6012  166.7171 C.ar    1  UNL1        0.0025
      9 C         142.9997  139.3132  168.0808 C.ar    1  UNL1        0.0295
     10 C         142.6337  140.1919  169.2400 C.ar    1  UNL1        0.1401
     11 F         143.1881  139.9040  170.6038 F       1  UNL1       -0.2042
     12 C         141.7133  141.3587  169.0356 C.ar    1  UNL1        0.0295
     13 C         141.1589  141.6466  167.6719 C.ar    1  UNL1        0.0025
     14 C         140.0497  139.9117  165.4541 C.ar    1  UNL1        0.0297
     15 C         139.0205  140.0457  166.5370 C.ar    1  UNL1        0.0025
     16 C         138.0996  138.9016  166.8422 C.ar    1  UNL1        0.0295
     17 C         138.2081  137.6236  166.0645 C.ar    1  UNL1        0.1401
     18 F         137.2872  136.4795  166.3698 F       1  UNL1       -0.2042
     19 C         139.2373  137.4896  164.9817 C.ar    1  UNL1        0.0295
     20 C         140.1582  138.6337  164.6764 C.ar    1  UNL1        0.0025
     21 C         140.3504  142.6221  161.6521 C.ar    1  UNL1        0.1633
     22 C         141.1529  143.6129  160.8620 C.ar    1  UNL1        0.0370
     23 C         140.7044  144.0163  159.4887 C.ar    1  UNL1        0.0717
     24 C         139.4535  143.4290  158.9054 C.ar    1  UNL1        0.0310
     25 C         138.6510  142.4382  159.6955 C.ar    1  UNL1        0.0998
     26 N         139.0995  142.0347  161.0688 N.ar    1  UNL1       -0.2364
     27 C         141.5069  145.0072  158.6985 C.1     1  UNL1        0.1005
     28 N         142.3093  145.9980  157.9083 N.1     1  UNL1       -0.1908
     29 C         144.2641  143.1587  165.9151 C.3     1  UNL1        0.0044
     30 C         142.9795  142.4504  166.2281 C.3     1  UNL1        0.0516
@<TRIPOS>BOND
     1    29    30    1
     2     1    30    1
     3     1     2    1
     4     2     3    1
     5     3    21    1
     6    21    22   ar
     7    22    23   ar
     8    23    27    1
     9    27    28    3
    10    23    24   ar
    11    24    25   ar
    12    25    26   ar
    13     3     4    2
    14     4     5    1
    15     5     7    1
    16     7     8   ar
    17     8     9   ar
    18     9    10   ar
    19    10    11    1
    20    10    12   ar
    21    12    13   ar
    22     5    14    1
    23    14    15   ar
    24    15    16   ar
    25    16    17   ar
    26    17    18    1
    27    17    19   ar
    28    19    20   ar
    29     5     1    1
    30    13     7   ar
    31    20    14   ar
    32    26    21   ar
    33     2     6    1
@<TRIPOS>MOLECULE
*****
 30 33 0 0 0
SMALL
GASTEIGER

@<TRIPOS>ATOM
      1 C         141.9145  143.4705  164.2413 C.3     1  UNL1        0.2095
      2 N         142.2163  143.0570  165.6512 N.pl3   1  UNL1       -0.2170
      3 C         141.3603  141.8697  165.9794 C.2     1  UNL1        0.3340
      4 N         140.5295  141.5494  164.7723 N.2     1  UNL1       -0.0601
      5 C         140.8720  142.5387  163.6981 C.3     1  UNL1        0.2500
      6 H         142.8626  143.4890  166.2552 H       1  UNL1        0.2923
      7 C         141.0023  143.3696  162.4560 C.ar    1  UNL1        0.0297
      8 C         142.0409  143.0264  161.4297 C.ar    1  UNL1        0.0025
      9 C         142.1712  143.8573  160.1875 C.ar    1  UNL1        0.0295
     10 C         141.2629  145.0313  159.9719 C.ar    1  UNL1        0.1401
     11 F         141.3932  145.8622  158.7299 F       1  UNL1       -0.2042
     12 C         140.2242  145.3745  160.9983 C.ar    1  UNL1        0.0295
     13 C         140.0939  144.5437  162.2403 C.ar    1  UNL1        0.0025
     14 C         139.8568  141.7807  162.8951 C.ar    1  UNL1        0.0297
     15 C         140.3053  140.8141  161.8394 C.ar    1  UNL1        0.0025
     16 C         139.2901  140.0560  161.0365 C.ar    1  UNL1        0.0295
     17 C         137.8263  140.2646  161.2893 C.ar    1  UNL1        0.1401
     18 F         136.8111  139.5065  160.4863 F       1  UNL1       -0.2042
     19 C         137.3778  141.2312  162.3449 C.ar    1  UNL1        0.0295
     20 C         138.3930  141.9893  163.1479 C.ar    1  UNL1        0.0025
     21 C         141.3389  141.1322  167.2854 C.ar    1  UNL1        0.1633
     22 C         140.0369  140.8940  167.9910 C.ar    1  UNL1        0.0370
     23 C         140.0155  140.1565  169.2970 C.ar    1  UNL1        0.0717
     24 C         141.2963  139.6572  169.8974 C.ar    1  UNL1        0.0310
     25 C         142.5983  139.8954  169.1918 C.ar    1  UNL1        0.0998
     26 N         142.6196  140.6329  167.8858 N.ar    1  UNL1       -0.2364
     27 C         138.7135  139.9183  170.0027 C.1     1  UNL1        0.1005
     28 N         137.4115  139.6801  170.7083 N.1     1  UNL1       -0.1908
     29 C         143.8301  145.2088  163.9987 C.3     1  UNL1        0.0044
     30 C         142.5445  144.6148  163.5040 C.3     1  UNL1        0.0516
@<TRIPOS>BOND
     1    29    30    1
     2     1    30    1
     3     1     2    1
     4     2     3    1
     5     3    21    1
     6    21    22   ar
     7    22    23   ar
     8    23    27    1
     9    27    28    3
    10    23    24   ar
    11    24    25   ar
    12    25    26   ar
    13     3     4    2
    14     4     5    1
    15     5     7    1
    16     7     8   ar
    17     8     9   ar
    18     9    10   ar
    19    10    11    1
    20    10    12   ar
    21    12    13   ar
    22     5    14    1
    23    14    15   ar
    24    15    16   ar
    25    16    17   ar
    26    17    18    1
    27    17    19   ar
    28    19    20   ar
    29     5     1    1
    30    13     7   ar
    31    20    14   ar
    32    26    21   ar
    33     2     6    1
@<TRIPOS>MOLECULE
*****
 30 33 0 0 0
SMALL
GASTEIGER

@<TRIPOS>ATOM
      1 C         143.0229  140.9701  164.5503 C.3     1  UNL1        0.2095
      2 N         142.8180  140.6890  166.0094 N.pl3   1  UNL1       -0.2170
      3 C         141.8393  141.6933  166.5420 C.2     1  UNL1        0.3340
      4 N         141.4393  142.5950  165.4121 N.2     1  UNL1       -0.0601
      5 C         142.1707  142.1481  164.1811 C.3     1  UNL1        0.2500
      6 H         143.2501  139.9714  166.5267 H       1  UNL1        0.2923
      7 C         142.7494  141.9382  162.8132 C.ar    1  UNL1        0.0297
      8 C         142.1099  140.9629  161.8700 C.ar    1  UNL1        0.0025
      9 C         142.6885  140.7529  160.5020 C.ar    1  UNL1        0.0295
     10 C         143.9065  141.5184  160.0774 C.ar    1  UNL1        0.1401
     11 F         144.4852  141.3085  158.7095 F       1  UNL1       -0.2042
     12 C         144.5461  142.4938  161.0207 C.ar    1  UNL1        0.0295
     13 C         143.9675  142.7037  162.3886 C.ar    1  UNL1        0.0025
     14 C         141.4396  143.2822  163.5259 C.ar    1  UNL1        0.0297
     15 C         141.9268  144.6899  163.7019 C.ar    1  UNL1        0.0025
     16 C         141.1957  145.8240  163.0467 C.ar    1  UNL1        0.0295
     17 C         139.9774  145.5503  162.2156 C.ar    1  UNL1        0.1401
     18 F         139.2462  146.6845  161.5604 F       1  UNL1       -0.2042
     19 C         139.4902  144.1427  162.0396 C.ar    1  UNL1        0.0295
     20 C         140.2213  143.0085  162.6948 C.ar    1  UNL1        0.0025
     21 C         141.3471  141.7804  167.9563 C.ar    1  UNL1        0.1633
     22 C         140.1629  140.9681  168.3897 C.ar    1  UNL1        0.0370
     23 C         139.6708  141.0553  169.8039 C.ar    1  UNL1        0.0717
     24 C         140.3627  141.9549  170.7848 C.ar    1  UNL1        0.0310
     25 C         141.5469  142.7672  170.3514 C.ar    1  UNL1        0.0998
     26 N         142.0391  142.6800  168.9371 N.ar    1  UNL1       -0.2364
     27 C         138.4865  140.2430  170.2374 C.1     1  UNL1        0.1005
     28 N         137.3024  139.4307  170.6708 N.1     1  UNL1       -0.1908
     29 C         145.1365  139.5104  164.1610 C.3     1  UNL1        0.0044
     30 C         143.9220  140.2071  163.6232 C.3     1  UNL1        0.0516
@<TRIPOS>BOND
     1    29    30    1
     2     1    30    1
     3     1     2    1
     4     2     3    1
     5     3    21    1
     6    21    22   ar
     7    22    23   ar
     8    23    27    1
     9    27    28    3
    10    23    24   ar
    11    24    25   ar
    12    25    26   ar
    13     3     4    2
    14     4     5    1
    15     5     7    1
    16     7     8   ar
    17     8     9   ar
    18     9    10   ar
    19    10    11    1
    20    10    12   ar
    21    12    13   ar
    22     5    14    1
    23    14    15   ar
    24    15    16   ar
    25    16    17   ar
    26    17    18    1
    27    17    19   ar
    28    19    20   ar
    29     5     1    1
    30    13     7   ar
    31    20    14   ar
    32    26    21   ar
    33     2     6    1
@<TRIPOS>MOLECULE
*****
 30 33 0 0 0
SMALL
GASTEIGER

@<TRIPOS>ATOM
      1 C         142.2721  139.2792  165.0748 C.3     1  UNL1        0.2095
      2 N         142.5867  138.5898  163.7804 N.pl3   1  UNL1       -0.2170
      3 C         141.7597  139.2265  162.7030 C.2     1  UNL1        0.3340
      4 N         140.9340  140.3095  163.3317 N.2     1  UNL1       -0.0601
      5 C         141.2506  140.3421  164.7975 C.3     1  UNL1        0.2500
      6 H         143.2241  137.8493  163.6591 H       1  UNL1        0.2923
      7 C         141.3585  140.6086  166.2697 C.ar    1  UNL1        0.0297
      8 C         142.4555  141.4866  166.7945 C.ar    1  UNL1        0.0025
      9 C         142.5635  141.7531  168.2668 C.ar    1  UNL1        0.0295
     10 C         141.5744  141.1415  169.2141 C.ar    1  UNL1        0.1401
     11 F         141.6822  141.4079  170.6863 F       1  UNL1       -0.2042
     12 C         140.4772  140.2634  168.6892 C.ar    1  UNL1        0.0295
     13 C         140.3693  139.9969  167.2171 C.ar    1  UNL1        0.0025
     14 C         140.2517  141.4607  164.8280 C.ar    1  UNL1        0.0297
     15 C         138.8017  141.1787  164.5670 C.ar    1  UNL1        0.0025
     16 C         137.8028  142.2973  164.5975 C.ar    1  UNL1        0.0295
     17 C         138.2538  143.6978  164.8890 C.ar    1  UNL1        0.1401
     18 F         137.2548  144.8164  164.9195 F       1  UNL1       -0.2042
     19 C         139.7037  143.9798  165.1499 C.ar    1  UNL1        0.0295
     20 C         140.7027  142.8613  165.1194 C.ar    1  UNL1        0.0025
     21 C         141.7586  138.8468  161.2518 C.ar    1  UNL1        0.1633
     22 C         140.6292  139.2790  160.3644 C.ar    1  UNL1        0.0370
     23 C         140.6282  138.8993  158.9132 C.ar    1  UNL1        0.0717
     24 C         141.7566  138.0875  158.3496 C.ar    1  UNL1        0.0310
     25 C         142.8860  137.6553  159.2371 C.ar    1  UNL1        0.0998
     26 N         142.8870  138.0350  160.6882 N.ar    1  UNL1       -0.2364
     27 C         139.4988  139.3315  158.0257 C.1     1  UNL1        0.1005
     28 N         138.3695  139.7637  157.1381 N.1     1  UNL1       -0.1908
     29 C         143.9572  137.9304  166.5208 C.3     1  UNL1        0.0044
     30 C         142.8734  138.9616  166.4118 C.3     1  UNL1        0.0516
@<TRIPOS>BOND
     1    29    30    1
     2     1    30    1
     3     1     2    1
     4     2     3    1
     5     3    21    1
     6    21    22   ar
     7    22    23   ar
     8    23    27    1
     9    27    28    3
    10    23    24   ar
    11    24    25   ar
    12    25    26   ar
    13     3     4    2
    14     4     5    1
    15     5     7    1
    16     7     8   ar
    17     8     9   ar
    18     9    10   ar
    19    10    11    1
    20    10    12   ar
    21    12    13   ar
    22     5    14    1
    23    14    15   ar
    24    15    16   ar
    25    16    17   ar
    26    17    18    1
    27    17    19   ar
    28    19    20   ar
    29     5     1    1
    30    13     7   ar
    31    20    14   ar
    32    26    21   ar
    33     2     6    1
@<TRIPOS>MOLECULE
*****
 30 33 0 0 0
SMALL
GASTEIGER

@<TRIPOS>ATOM
      1 C         141.6361  144.4871  162.3286 C.3     1  UNL1        0.2095
      2 N         141.9905  145.1738  161.0430 N.pl3   1  UNL1       -0.2170
      3 C         141.3431  144.4185  159.9203 C.2     1  UNL1        0.3340
      4 N         140.5885  143.2651  160.5120 N.2     1  UNL1       -0.0601
      5 C         140.7696  143.3074  162.0004 C.3     1  UNL1        0.2500
      6 H         142.5499  145.9788  160.9520 H       1  UNL1        0.2923
      7 C         140.7696  143.0939  163.4851 C.ar    1  UNL1        0.0297
      8 C         139.7713  143.8099  164.3458 C.ar    1  UNL1        0.0025
      9 C         139.7712  143.5964  165.8306 C.ar    1  UNL1        0.0295
     10 C         140.7694  142.6668  166.4546 C.ar    1  UNL1        0.1401
     11 F         140.7693  142.4532  167.9393 F       1  UNL1       -0.2042
     12 C         141.7677  141.9507  165.5939 C.ar    1  UNL1        0.0295
     13 C         141.7678  142.1642  164.1092 C.ar    1  UNL1        0.0025
     14 C         139.9031  142.0832  161.9827 C.ar    1  UNL1        0.0297
     15 C         138.4389  142.1961  162.2883 C.ar    1  UNL1        0.0025
     16 C         137.5724  140.9718  162.2705 C.ar    1  UNL1        0.0295
     17 C         138.1701  139.6346  161.9472 C.ar    1  UNL1        0.1401
     18 F         137.3035  138.4103  161.9295 F       1  UNL1       -0.2042
     19 C         139.6342  139.5216  161.6416 C.ar    1  UNL1        0.0295
     20 C         140.5008  140.7459  161.6594 C.ar    1  UNL1        0.0025
     21 C         141.4342  144.7573  158.4618 C.ar    1  UNL1        0.1633
     22 C         140.5271  145.7982  157.8755 C.ar    1  UNL1        0.0370
     23 C         140.6183  146.1369  156.4172 C.ar    1  UNL1        0.0717
     24 C         141.6166  145.4348  155.5451 C.ar    1  UNL1        0.0310
     25 C         142.5236  144.3940  156.1314 C.ar    1  UNL1        0.0998
     26 N         142.4325  144.0552  157.5897 N.ar    1  UNL1       -0.2364
     27 C         139.7112  147.1778  155.8308 C.1     1  UNL1        0.1005
     28 N         138.8041  148.2187  155.2445 N.1     1  UNL1       -0.1908
     29 C         143.4886  145.3373  163.9396 C.3     1  UNL1        0.0044
     30 C         142.0717  144.9064  163.7014 C.3     1  UNL1        0.0516
@<TRIPOS>BOND
     1    29    30    1
     2     1    30    1
     3     1     2    1
     4     2     3    1
     5     3    21    1
     6    21    22   ar
     7    22    23   ar
     8    23    27    1
     9    27    28    3
    10    23    24   ar
    11    24    25   ar
    12    25    26   ar
    13     3     4    2
    14     4     5    1
    15     5     7    1
    16     7     8   ar
    17     8     9   ar
    18     9    10   ar
    19    10    11    1
    20    10    12   ar
    21    12    13   ar
    22     5    14    1
    23    14    15   ar
    24    15    16   ar
    25    16    17   ar
    26    17    18    1
    27    17    19   ar
    28    19    20   ar
    29     5     1    1
    30    13     7   ar
    31    20    14   ar
    32    26    21   ar
    33     2     6    1
@<TRIPOS>MOLECULE
*****
 30 33 0 0 0
SMALL
GASTEIGER

@<TRIPOS>ATOM
      1 C         142.7365  139.6275  165.0036 C.3     1  UNL1        0.2095
      2 N         143.2454  139.0998  163.6950 N.pl3   1  UNL1       -0.2170
      3 C         142.4702  139.7624  162.5950 C.2     1  UNL1        0.3340
      4 N         141.4821  140.6996  163.2238 N.2     1  UNL1       -0.0601
      5 C         141.6467  140.6162  164.7124 C.3     1  UNL1        0.2500
      6 H         143.9624  138.4352  163.5785 H       1  UNL1        0.2923
      7 C         141.5806  140.7452  166.2054 C.ar    1  UNL1        0.0297
      8 C         140.6038  139.9177  166.9871 C.ar    1  UNL1        0.0025
      9 C         140.5377  140.0466  168.4801 C.ar    1  UNL1        0.0295
     10 C         141.4484  141.0030  169.1913 C.ar    1  UNL1        0.1401
     11 F         141.3823  141.1319  170.6843 F       1  UNL1       -0.2042
     12 C         142.4253  141.8306  168.4096 C.ar    1  UNL1        0.0295
     13 C         142.4913  141.7016  166.9166 C.ar    1  UNL1        0.0025
     14 C         140.5431  141.6319  164.7333 C.ar    1  UNL1        0.0297
     15 C         139.1166  141.1927  164.5847 C.ar    1  UNL1        0.0025
     16 C         138.0130  142.2083  164.6057 C.ar    1  UNL1        0.0295
     17 C         138.3360  143.6633  164.7752 C.ar    1  UNL1        0.1401
     18 F         137.2323  144.6790  164.7961 F       1  UNL1       -0.2042
     19 C         139.7624  144.1026  164.9238 C.ar    1  UNL1        0.0295
     20 C         140.8661  143.0869  164.9028 C.ar    1  UNL1        0.0025
     21 C         142.6512  139.5288  161.1243 C.ar    1  UNL1        0.1633
     22 C         143.4640  140.4886  160.3069 C.ar    1  UNL1        0.0370
     23 C         143.6450  140.2549  158.8364 C.ar    1  UNL1        0.0717
     24 C         143.0132  139.0615  158.1832 C.ar    1  UNL1        0.0310
     25 C         142.2005  138.1017  159.0006 C.ar    1  UNL1        0.0998
     26 N         142.0195  138.3353  160.4712 N.ar    1  UNL1       -0.2364
     27 C         144.4578  141.2147  158.0189 C.1     1  UNL1        0.1005
     28 N         145.2705  142.1745  157.2015 N.1     1  UNL1       -0.1908
     29 C         143.9182  137.9168  166.5615 C.3     1  UNL1        0.0044
     30 C         143.2306  139.2353  166.3645 C.3     1  UNL1        0.0516
@<TRIPOS>BOND
     1    29    30    1
     2     1    30    1
     3     1     2    1
     4     2     3    1
     5     3    21    1
     6    21    22   ar
     7    22    23   ar
     8    23    27    1
     9    27    28    3
    10    23    24   ar
    11    24    25   ar
    12    25    26   ar
    13     3     4    2
    14     4     5    1
    15     5     7    1
    16     7     8   ar
    17     8     9   ar
    18     9    10   ar
    19    10    11    1
    20    10    12   ar
    21    12    13   ar
    22     5    14    1
    23    14    15   ar
    24    15    16   ar
    25    16    17   ar
    26    17    18    1
    27    17    19   ar
    28    19    20   ar
    29     5     1    1
    30    13     7   ar
    31    20    14   ar
    32    26    21   ar
    33     2     6    1
