@<TRIPOS>MOLECULE
*****
 36 39 0 0 0
SMALL
GASTEIGER

@<TRIPOS>ATOM
      1 N         140.9230  139.2346  159.7469 N.am    1  UNL1       -0.2448
      2 C         141.2164  140.7000  159.6183 C.2     1  UNL1        0.3079
      3 O         141.7548  141.2468  158.3294 O.2     1  UNL1       -0.2522
      4 N         140.9716  141.6185  160.7786 N.am    1  UNL1       -0.2844
      5 H         140.6182  141.2596  161.6246 H       1  UNL1        0.1513
      6 C         140.3846  138.6877  161.0358 C.ar    1  UNL1        0.0553
      7 C         138.9069  138.6918  161.2931 C.ar    1  UNL1        0.0158
      8 C         138.3686  138.1449  162.5819 C.ar    1  UNL1        0.0127
      9 C         139.3080  137.5940  163.6134 C.ar    1  UNL1        0.0578
     10 CL        138.7696  137.0471  164.9023 Cl      1  UNL1       -0.0822
     11 C         140.7857  137.5900  163.3561 C.ar    1  UNL1        0.0127
     12 C         141.3240  138.1369  162.0673 C.ar    1  UNL1        0.0158
     13 N         141.6576  136.4790  156.2660 N.3     1  UNL1       -0.2688
     14 C         142.7720  136.7982  157.2180 C.3     1  UNL1        0.0741
     15 C         142.5271  137.7168  158.3783 C.3     1  UNL1        0.0376
     16 C         141.1679  138.3161  158.5866 C.3     1  UNL1        0.0840
     17 C         140.0535  137.9968  157.6346 C.3     1  UNL1        0.0376
     18 C         140.2984  137.0782  156.4743 C.3     1  UNL1        0.0741
     19 C         141.9025  135.5604  155.1057 C.3     1  UNL1        0.0993
     20 N         145.4231  132.0324  156.5749 N.pl3   1  UNL1       -0.3426
     21 C         144.0459  132.3667  156.0834 C.ar    1  UNL1        0.1251
     22 C         143.6628  133.7964  155.8403 C.ar    1  UNL1        0.0310
     23 C         142.2856  134.1306  155.3488 C.ar    1  UNL1       -0.0018
     24 C         141.2915  133.0352  155.1005 C.ar    1  UNL1        0.0179
     25 C         141.6746  131.6055  155.3436 C.ar    1  UNL1        0.1000
     26 N         143.0518  131.2713  155.8351 N.ar    1  UNL1       -0.2296
     27 H         146.0756  132.7514  156.7379 H       1  UNL1        0.1437
     28 H         145.6746  131.0941  156.7345 H       1  UNL1        0.1437
     29 C         141.2651  143.0839  160.6500 C.3     1  UNL1        0.1177
     30 C         142.0252  143.7942  161.7306 C.ar    1  UNL1       -0.0024
     31 C         143.5059  143.5929  161.8625 C.ar    1  UNL1       -0.0003
     32 C         144.2660  144.3031  162.9431 C.ar    1  UNL1        0.0294
     33 C         143.5456  145.2147  163.8918 C.ar    1  UNL1        0.1401
     34 F         144.3057  145.9250  164.9724 F       1  UNL1       -0.2042
     35 C         142.0650  145.4160  163.7599 C.ar    1  UNL1        0.0294
     36 C         141.3049  144.7058  162.6793 C.ar    1  UNL1       -0.0003
@<TRIPOS>BOND
     1    20    21    1
     2    21    22   ar
     3    22    23   ar
     4    23    19    1
     5    19    13    1
     6    13    14    1
     7    14    15    1
     8    15    16    1
     9    16     1    1
    10     1     2   am
    11     2     3    2
    12     2     4   am
    13     4    29    1
    14    29    30    1
    15    30    31   ar
    16    31    32   ar
    17    32    33   ar
    18    33    34    1
    19    33    35   ar
    20    35    36   ar
    21     1     6    1
    22     6     7   ar
    23     7     8   ar
    24     8     9   ar
    25     9    10    1
    26     9    11   ar
    27    11    12   ar
    28    16    17    1
    29    17    18    1
    30    23    24   ar
    31    24    25   ar
    32    25    26   ar
    33    26    21   ar
    34    18    13    1
    35    36    30   ar
    36    12     6   ar
    37    20    27    1
    38    20    28    1
    39     4     5    1
@<TRIPOS>MOLECULE
*****
 36 39 0 0 0
SMALL
GASTEIGER

@<TRIPOS>ATOM
      1 N         141.7449  140.2947  161.7324 N.am    1  UNL1       -0.2448
      2 C         142.1823  139.5504  162.9590 C.2     1  UNL1        0.3079
      3 O         142.6152  138.1181  162.8527 O.2     1  UNL1       -0.2522
      4 N         142.1869  140.2383  164.2920 N.am    1  UNL1       -0.2844
      5 H         141.9028  141.1783  164.3618 H       1  UNL1        0.1513
      6 C         141.3121  141.7270  161.8387 C.ar    1  UNL1        0.0553
      7 C         142.3208  142.8279  161.6963 C.ar    1  UNL1        0.0158
      8 C         141.8880  144.2601  161.8026 C.ar    1  UNL1        0.0127
      9 C         140.4463  144.5915  162.0513 C.ar    1  UNL1        0.0578
     10 CL        140.0135  146.0238  162.1576 Cl      1  UNL1       -0.0822
     11 C         139.4375  143.4906  162.1937 C.ar    1  UNL1        0.0127
     12 C         139.8704  142.0583  162.0874 C.ar    1  UNL1        0.0158
     13 N         141.7312  138.2310  157.7335 N.3     1  UNL1       -0.2688
     14 C         142.9991  138.8336  158.2622 C.3     1  UNL1        0.0741
     15 C         143.0037  139.5215  159.5952 C.3     1  UNL1        0.0376
     16 C         141.7404  139.6068  160.3994 C.3     1  UNL1        0.0840
     17 C         140.4725  139.0043  159.8708 C.3     1  UNL1        0.0376
     18 C         140.4680  138.3164  158.5378 C.3     1  UNL1        0.0741
     19 C         141.7267  137.5431  156.4006 C.3     1  UNL1        0.0993
     20 N         144.2048  133.2918  158.0696 N.pl3   1  UNL1       -0.3426
     21 C         143.2098  133.9397  157.1529 C.ar    1  UNL1        0.1251
     22 C         142.9657  135.4174  157.2351 C.ar    1  UNL1        0.0310
     23 C         141.9708  136.0653  156.3184 C.ar    1  UNL1       -0.0018
     24 C         141.2199  135.2356  155.3196 C.ar    1  UNL1        0.0179
     25 C         141.4640  133.7579  155.2375 C.ar    1  UNL1        0.1000
     26 N         142.4590  133.1100  156.1541 N.ar    1  UNL1       -0.2296
     27 H         144.6976  133.8365  158.7251 H       1  UNL1        0.1437
     28 H         144.3650  132.3220  158.0156 H       1  UNL1        0.1437
     29 C         142.6243  139.4939  165.5186 C.3     1  UNL1        0.1177
     30 C         141.8680  139.6561  166.8039 C.ar    1  UNL1       -0.0024
     31 C         140.3967  139.9468  166.7767 C.ar    1  UNL1       -0.0003
     32 C         139.6404  140.1090  168.0619 C.ar    1  UNL1        0.0294
     33 C         140.3555  139.9805  169.3743 C.ar    1  UNL1        0.1401
     34 F         139.5993  140.1426  170.6595 F       1  UNL1       -0.2042
     35 C         141.8268  139.6898  169.4014 C.ar    1  UNL1        0.0294
     36 C         142.5831  139.5276  168.1161 C.ar    1  UNL1       -0.0003
@<TRIPOS>BOND
     1    20    21    1
     2    21    22   ar
     3    22    23   ar
     4    23    19    1
     5    19    13    1
     6    13    14    1
     7    14    15    1
     8    15    16    1
     9    16     1    1
    10     1     2   am
    11     2     3    2
    12     2     4   am
    13     4    29    1
    14    29    30    1
    15    30    31   ar
    16    31    32   ar
    17    32    33   ar
    18    33    34    1
    19    33    35   ar
    20    35    36   ar
    21     1     6    1
    22     6     7   ar
    23     7     8   ar
    24     8     9   ar
    25     9    10    1
    26     9    11   ar
    27    11    12   ar
    28    16    17    1
    29    17    18    1
    30    23    24   ar
    31    24    25   ar
    32    25    26   ar
    33    26    21   ar
    34    18    13    1
    35    36    30   ar
    36    12     6   ar
    37    20    27    1
    38    20    28    1
    39     4     5    1
@<TRIPOS>MOLECULE
*****
 36 39 0 0 0
SMALL
GASTEIGER

@<TRIPOS>ATOM
      1 N         141.2979  139.5064  160.1289 N.am    1  UNL1       -0.2448
      2 C         141.4886  138.9443  161.5064 C.2     1  UNL1        0.3079
      3 O         141.7768  137.4833  161.6871 O.2     1  UNL1       -0.2522
      4 N         141.3911  139.8431  162.7034 N.am    1  UNL1       -0.2844
      5 H         141.2020  140.8020  162.5848 H       1  UNL1        0.1513
      6 C         141.0097  140.9673  159.9482 C.ar    1  UNL1        0.0553
      7 C         139.5939  141.4618  159.9777 C.ar    1  UNL1        0.0158
      8 C         139.3058  142.9227  159.7971 C.ar    1  UNL1        0.0127
      9 C         140.4335  143.8891  159.5869 C.ar    1  UNL1        0.0578
     10 CL        140.1453  145.3501  159.4062 Cl      1  UNL1       -0.0822
     11 C         141.8493  143.3947  159.5574 C.ar    1  UNL1        0.0127
     12 C         142.1374  141.9338  159.7381 C.ar    1  UNL1        0.0158
     13 N         141.5903  136.8099  156.5382 N.3     1  UNL1       -0.2688
     14 C         140.2619  137.3753  156.9453 C.3     1  UNL1        0.0741
     15 C         140.1644  138.2742  158.1422 C.3     1  UNL1        0.0376
     16 C         141.3954  138.6075  158.9320 C.3     1  UNL1        0.0840
     17 C         142.7237  138.0421  158.5249 C.3     1  UNL1        0.0376
     18 C         142.8211  137.1433  157.3279 C.3     1  UNL1        0.0741
     19 C         141.6877  135.9111  155.3412 C.3     1  UNL1        0.0993
     20 N         145.3544  132.4556  156.6121 N.pl3   1  UNL1       -0.3426
     21 C         143.9627  132.7594  156.1421 C.ar    1  UNL1        0.1251
     22 C         143.5211  134.1833  155.9767 C.ar    1  UNL1        0.0310
     23 C         142.1294  134.4871  155.5066 C.ar    1  UNL1       -0.0018
     24 C         141.1794  133.3670  155.2020 C.ar    1  UNL1        0.0179
     25 C         141.6211  131.9431  155.3674 C.ar    1  UNL1        0.1000
     26 N         143.0127  131.6393  155.8374 N.ar    1  UNL1       -0.2296
     27 H         145.9779  133.1907  156.8121 H       1  UNL1        0.1437
     28 H         145.6443  131.5210  156.7207 H       1  UNL1        0.1437
     29 C         141.5819  139.2809  164.0810 C.3     1  UNL1        0.1177
     30 C         140.3891  138.9683  164.9352 C.ar    1  UNL1       -0.0024
     31 C         139.9773  139.9149  166.0235 C.ar    1  UNL1       -0.0003
     32 C         138.7846  139.6023  166.8777 C.ar    1  UNL1        0.0294
     33 C         138.0037  138.3431  166.6436 C.ar    1  UNL1        0.1401
     34 F         136.8110  138.0305  167.4978 F       1  UNL1       -0.2042
     35 C         138.4156  137.3966  165.5553 C.ar    1  UNL1        0.0294
     36 C         139.6083  137.7092  164.7011 C.ar    1  UNL1       -0.0003
@<TRIPOS>BOND
     1    20    21    1
     2    21    22   ar
     3    22    23   ar
     4    23    19    1
     5    19    13    1
     6    13    14    1
     7    14    15    1
     8    15    16    1
     9    16     1    1
    10     1     2   am
    11     2     3    2
    12     2     4   am
    13     4    29    1
    14    29    30    1
    15    30    31   ar
    16    31    32   ar
    17    32    33   ar
    18    33    34    1
    19    33    35   ar
    20    35    36   ar
    21     1     6    1
    22     6     7   ar
    23     7     8   ar
    24     8     9   ar
    25     9    10    1
    26     9    11   ar
    27    11    12   ar
    28    16    17    1
    29    17    18    1
    30    23    24   ar
    31    24    25   ar
    32    25    26   ar
    33    26    21   ar
    34    18    13    1
    35    36    30   ar
    36    12     6   ar
    37    20    27    1
    38    20    28    1
    39     4     5    1
@<TRIPOS>MOLECULE
*****
 36 39 0 0 0
SMALL
GASTEIGER

@<TRIPOS>ATOM
      1 N         139.1966  139.7594  157.9124 N.am    1  UNL1       -0.2448
      2 C         138.8817  139.5743  159.3673 C.2     1  UNL1        0.3079
      3 O         139.3803  138.3606  160.0941 O.2     1  UNL1       -0.2522
      4 N         138.0681  140.6030  160.0953 N.am    1  UNL1       -0.2844
      5 H         137.7409  141.3996  159.6183 H       1  UNL1        0.1513
      6 C         138.6980  140.9732  157.1856 C.ar    1  UNL1        0.0553
      7 C         137.3136  140.9857  156.6083 C.ar    1  UNL1        0.0158
      8 C         136.8150  142.1994  155.8815 C.ar    1  UNL1        0.0127
      9 C         137.7008  143.4006  155.7320 C.ar    1  UNL1        0.0578
     10 CL        137.2022  144.6144  155.0052 Cl      1  UNL1       -0.0822
     11 C         139.0852  143.3882  156.3093 C.ar    1  UNL1        0.0127
     12 C         139.5838  142.1744  157.0361 C.ar    1  UNL1        0.0158
     13 N         141.6372  136.6735  155.7283 N.3     1  UNL1       -0.2688
     14 C         140.1520  136.7349  155.5272 C.3     1  UNL1        0.0741
     15 C         139.3384  137.7635  156.2552 C.3     1  UNL1        0.0376
     16 C         140.0101  138.7308  157.1844 C.3     1  UNL1        0.0840
     17 C         141.4953  138.6694  157.3855 C.3     1  UNL1        0.0376
     18 C         142.3088  137.6408  156.6574 C.3     1  UNL1        0.0741
     19 C         142.4508  135.6449  155.0002 C.3     1  UNL1        0.0993
     20 N         145.3875  132.6840  158.1000 N.pl3   1  UNL1       -0.3426
     21 C         144.2025  132.8394  157.1936 C.ar    1  UNL1        0.1251
     22 C         143.9191  134.1644  156.5501 C.ar    1  UNL1        0.0310
     23 C         142.7341  134.3198  155.6437 C.ar    1  UNL1       -0.0018
     24 C         141.8324  133.1503  155.3808 C.ar    1  UNL1        0.0179
     25 C         142.1158  131.8254  156.0242 C.ar    1  UNL1        0.1000
     26 N         143.3008  131.6699  156.9307 N.ar    1  UNL1       -0.2296
     27 H         145.9793  133.4516  158.2726 H       1  UNL1        0.1437
     28 H         145.5734  131.8143  158.5224 H       1  UNL1        0.1437
     29 C         137.7532  140.4178  161.5502 C.3     1  UNL1        0.1177
     30 C         137.8908  141.5707  162.4999 C.ar    1  UNL1       -0.0024
     31 C         138.0452  141.3168  163.9703 C.ar    1  UNL1       -0.0003
     32 C         138.1828  142.4697  164.9200 C.ar    1  UNL1        0.0294
     33 C         138.1659  143.8764  164.3994 C.ar    1  UNL1        0.1401
     34 F         138.3035  145.0293  165.3491 F       1  UNL1       -0.2042
     35 C         138.0115  144.1302  162.9291 C.ar    1  UNL1        0.0294
     36 C         137.8739  142.9774  161.9794 C.ar    1  UNL1       -0.0003
@<TRIPOS>BOND
     1    20    21    1
     2    21    22   ar
     3    22    23   ar
     4    23    19    1
     5    19    13    1
     6    13    14    1
     7    14    15    1
     8    15    16    1
     9    16     1    1
    10     1     2   am
    11     2     3    2
    12     2     4   am
    13     4    29    1
    14    29    30    1
    15    30    31   ar
    16    31    32   ar
    17    32    33   ar
    18    33    34    1
    19    33    35   ar
    20    35    36   ar
    21     1     6    1
    22     6     7   ar
    23     7     8   ar
    24     8     9   ar
    25     9    10    1
    26     9    11   ar
    27    11    12   ar
    28    16    17    1
    29    17    18    1
    30    23    24   ar
    31    24    25   ar
    32    25    26   ar
    33    26    21   ar
    34    18    13    1
    35    36    30   ar
    36    12     6   ar
    37    20    27    1
    38    20    28    1
    39     4     5    1
@<TRIPOS>MOLECULE
*****
 36 39 0 0 0
SMALL
GASTEIGER

@<TRIPOS>ATOM
      1 N         140.2169  139.7075  160.0358 N.am    1  UNL1       -0.2448
      2 C         139.5164  139.1177  161.2238 C.2     1  UNL1        0.3079
      3 O         139.3375  137.6320  161.3277 O.2     1  UNL1       -0.2522
      4 N         138.9946  140.0135  162.3078 N.am    1  UNL1       -0.2844
      5 H         139.1120  140.9886  162.2397 H       1  UNL1        0.1513
      6 C         140.3958  141.1932  159.9319 C.ar    1  UNL1        0.0553
      7 C         139.3828  142.0210  159.1981 C.ar    1  UNL1        0.0158
      8 C         139.5617  143.5067  159.0941 C.ar    1  UNL1        0.0127
      9 C         140.7536  144.1644  159.7240 C.ar    1  UNL1        0.0578
     10 CL        140.9324  145.6502  159.6201 Cl      1  UNL1       -0.0822
     11 C         141.7665  143.3366  160.4578 C.ar    1  UNL1        0.0127
     12 C         141.5876  141.8510  160.5618 C.ar    1  UNL1        0.0158
     13 N         141.7821  137.0199  156.7835 N.3     1  UNL1       -0.2688
     14 C         142.7068  137.5183  157.8544 C.3     1  UNL1        0.0741
     15 C         142.1850  138.4142  158.9385 C.3     1  UNL1        0.0376
     16 C         140.7387  138.8116  158.9517 C.3     1  UNL1        0.0840
     17 C         139.8141  138.3132  157.8809 C.3     1  UNL1        0.0376
     18 C         140.3358  137.4173  156.7968 C.3     1  UNL1        0.0741
     19 C         142.3039  136.1240  155.6995 C.3     1  UNL1        0.0993
     20 N         144.4195  131.9687  157.9923 N.pl3   1  UNL1       -0.3426
     21 C         143.4079  132.5620  157.0571 C.ar    1  UNL1        0.1251
     22 C         143.3616  134.0463  156.8459 C.ar    1  UNL1        0.0310
     23 C         142.3501  134.6396  155.9106 C.ar    1  UNL1       -0.0018
     24 C         141.3848  133.7487  155.1866 C.ar    1  UNL1        0.0179
     25 C         141.4310  132.2644  155.3978 C.ar    1  UNL1        0.1000
     26 N         142.4426  131.6710  156.3330 N.ar    1  UNL1       -0.2296
     27 H         145.0530  132.5535  158.4676 H       1  UNL1        0.1437
     28 H         144.4498  130.9944  158.1309 H       1  UNL1        0.1437
     29 C         138.2940  139.4237  163.4959 C.3     1  UNL1        0.1177
     30 C         138.7505  139.7675  164.8827 C.ar    1  UNL1       -0.0024
     31 C         138.2227  138.9994  166.0581 C.ar    1  UNL1       -0.0003
     32 C         138.6791  139.3432  167.4450 C.ar    1  UNL1        0.0294
     33 C         139.6635  140.4552  167.6565 C.ar    1  UNL1        0.1401
     34 F         140.1200  140.7990  169.0433 F       1  UNL1       -0.2042
     35 C         140.1913  141.2233  166.4811 C.ar    1  UNL1        0.0294
     36 C         139.7348  140.8794  165.0943 C.ar    1  UNL1       -0.0003
@<TRIPOS>BOND
     1    20    21    1
     2    21    22   ar
     3    22    23   ar
     4    23    19    1
     5    19    13    1
     6    13    14    1
     7    14    15    1
     8    15    16    1
     9    16     1    1
    10     1     2   am
    11     2     3    2
    12     2     4   am
    13     4    29    1
    14    29    30    1
    15    30    31   ar
    16    31    32   ar
    17    32    33   ar
    18    33    34    1
    19    33    35   ar
    20    35    36   ar
    21     1     6    1
    22     6     7   ar
    23     7     8   ar
    24     8     9   ar
    25     9    10    1
    26     9    11   ar
    27    11    12   ar
    28    16    17    1
    29    17    18    1
    30    23    24   ar
    31    24    25   ar
    32    25    26   ar
    33    26    21   ar
    34    18    13    1
    35    36    30   ar
    36    12     6   ar
    37    20    27    1
    38    20    28    1
    39     4     5    1
@<TRIPOS>MOLECULE
*****
 36 39 0 0 0
SMALL
GASTEIGER

@<TRIPOS>ATOM
      1 N         140.6218  140.8196  162.3192 N.am    1  UNL1       -0.2448
      2 C         140.8272  140.1543  163.6478 C.2     1  UNL1        0.3079
      3 O         141.0625  138.6744  163.7171 O.2     1  UNL1       -0.2522
      4 N         140.7973  140.9688  164.9071 N.am    1  UNL1       -0.2844
      5 H         140.6429  141.9400  164.8616 H       1  UNL1        0.1513
      6 C         140.3866  142.2995  162.2499 C.ar    1  UNL1        0.0553
      7 C         139.0107  142.8517  162.4780 C.ar    1  UNL1        0.0158
      8 C         138.7755  144.3315  162.4087 C.ar    1  UNL1        0.0127
      9 C         139.9162  145.2591  162.1112 C.ar    1  UNL1        0.0578
     10 CL        139.6809  146.7389  162.0418 Cl      1  UNL1       -0.0822
     11 C         141.2920  144.7069  161.8831 C.ar    1  UNL1        0.0127
     12 C         141.5272  143.2271  161.9524 C.ar    1  UNL1        0.0158
     13 N         140.7115  138.3763  158.5414 N.3     1  UNL1       -0.2688
     14 C         139.4062  138.6453  159.2298 C.3     1  UNL1        0.0741
     15 C         139.3763  139.4598  160.4890 C.3     1  UNL1        0.0376
     16 C         140.6517  140.0052  161.0600 C.3     1  UNL1        0.0840
     17 C         141.9570  139.7361  160.3716 C.3     1  UNL1        0.0376
     18 C         141.9869  138.9216  159.1123 C.3     1  UNL1        0.0741
     19 C         140.7414  137.5618  157.2822 C.3     1  UNL1        0.0993
     20 N         144.3703  134.0174  156.1559 N.pl3   1  UNL1       -0.3426
     21 C         143.8690  135.4296  156.0897 C.ar    1  UNL1        0.1251
     22 C         142.5559  135.7896  156.7190 C.ar    1  UNL1        0.0310
     23 C         142.0546  137.2018  156.6528 C.ar    1  UNL1       -0.0018
     24 C         142.8664  138.2540  155.9572 C.ar    1  UNL1        0.0179
     25 C         144.1795  137.8940  155.3279 C.ar    1  UNL1        0.1000
     26 N         144.6808  136.4818  155.3941 N.ar    1  UNL1       -0.2296
     27 H         143.8375  133.3268  156.6125 H       1  UNL1        0.1437
     28 H         145.2322  133.7811  155.7429 H       1  UNL1        0.1437
     29 C         141.0027  140.3034  166.2357 C.3     1  UNL1        0.1177
     30 C         140.6003  141.0078  167.4974 C.ar    1  UNL1       -0.0024
     31 C         140.9223  142.4614  167.6802 C.ar    1  UNL1       -0.0003
     32 C         140.5199  143.1658  168.9419 C.ar    1  UNL1        0.0294
     33 C         139.7956  142.4166  170.0208 C.ar    1  UNL1        0.1401
     34 F         139.3933  143.1210  171.2826 F       1  UNL1       -0.2042
     35 C         139.4737  140.9630  169.8380 C.ar    1  UNL1        0.0294
     36 C         139.8760  140.2586  168.5763 C.ar    1  UNL1       -0.0003
@<TRIPOS>BOND
     1    20    21    1
     2    21    22   ar
     3    22    23   ar
     4    23    19    1
     5    19    13    1
     6    13    14    1
     7    14    15    1
     8    15    16    1
     9    16     1    1
    10     1     2   am
    11     2     3    2
    12     2     4   am
    13     4    29    1
    14    29    30    1
    15    30    31   ar
    16    31    32   ar
    17    32    33   ar
    18    33    34    1
    19    33    35   ar
    20    35    36   ar
    21     1     6    1
    22     6     7   ar
    23     7     8   ar
    24     8     9   ar
    25     9    10    1
    26     9    11   ar
    27    11    12   ar
    28    16    17    1
    29    17    18    1
    30    23    24   ar
    31    24    25   ar
    32    25    26   ar
    33    26    21   ar
    34    18    13    1
    35    36    30   ar
    36    12     6   ar
    37    20    27    1
    38    20    28    1
    39     4     5    1
@<TRIPOS>MOLECULE
*****
 36 39 0 0 0
SMALL
GASTEIGER

@<TRIPOS>ATOM
      1 N         141.7626  142.4410  162.5771 N.am    1  UNL1       -0.2448
      2 C         142.5410  142.8282  163.7994 C.2     1  UNL1        0.3079
      3 O         143.4020  144.0564  163.7823 O.2     1  UNL1       -0.2522
      4 N         142.4585  141.9873  165.0387 N.am    1  UNL1       -0.2844
      5 H         141.8934  141.1812  165.0499 H       1  UNL1        0.1513
      6 C         140.9016  141.2128  162.5941 C.ar    1  UNL1        0.0553
      7 C         139.4644  141.3100  163.0124 C.ar    1  UNL1        0.0158
      8 C         138.6035  140.0819  163.0294 C.ar    1  UNL1        0.0127
      9 C         139.1797  138.7564  162.6281 C.ar    1  UNL1        0.0578
     10 CL        138.3187  137.5282  162.6451 Cl      1  UNL1       -0.0822
     11 C         140.6169  138.6591  162.2098 C.ar    1  UNL1        0.0127
     12 C         141.4778  139.8873  162.1928 C.ar    1  UNL1        0.0158
     13 N         142.0101  144.9638  158.8590 N.3     1  UNL1       -0.2688
     14 C         141.0925  145.3630  159.9765 C.3     1  UNL1        0.0741
     15 C         141.0100  144.5221  161.2159 C.3     1  UNL1        0.0376
     16 C         141.8451  143.2819  161.3377 C.3     1  UNL1        0.0840
     17 C         142.7626  142.8828  160.2202 C.3     1  UNL1        0.0376
     18 C         142.8451  143.7237  158.9809 C.3     1  UNL1        0.0741
     19 C         142.0926  145.8047  157.6196 C.3     1  UNL1        0.0993
     20 N         137.7419  146.2555  154.8146 N.pl3   1  UNL1       -0.3426
     21 C         139.1074  145.6657  155.0082 C.ar    1  UNL1        0.1251
     22 C         139.9172  146.0301  156.2171 C.ar    1  UNL1        0.0310
     23 C         141.2828  145.4403  156.4107 C.ar    1  UNL1       -0.0018
     24 C         141.8384  144.4861  155.3955 C.ar    1  UNL1        0.0179
     25 C         141.0286  144.1217  154.1867 C.ar    1  UNL1        0.1000
     26 N         139.6631  144.7115  153.9930 N.ar    1  UNL1       -0.2296
     27 H         137.3772  146.8818  155.4809 H       1  UNL1        0.1437
     28 H         137.2104  146.0164  154.0212 H       1  UNL1        0.1437
     29 C         143.2370  142.3746  166.2611 C.3     1  UNL1        0.1177
     30 C         142.5809  142.3420  167.6096 C.ar    1  UNL1       -0.0024
     31 C         143.4210  142.2925  168.8513 C.ar    1  UNL1       -0.0003
     32 C         142.7649  142.2599  170.1999 C.ar    1  UNL1        0.0294
     33 C         141.2688  142.2769  170.3066 C.ar    1  UNL1        0.1401
     34 F         140.6127  142.2443  171.6551 F       1  UNL1       -0.2042
     35 C         140.4288  142.3264  169.0649 C.ar    1  UNL1        0.0294
     36 C         141.0849  142.3590  167.7164 C.ar    1  UNL1       -0.0003
@<TRIPOS>BOND
     1    20    21    1
     2    21    22   ar
     3    22    23   ar
     4    23    19    1
     5    19    13    1
     6    13    14    1
     7    14    15    1
     8    15    16    1
     9    16     1    1
    10     1     2   am
    11     2     3    2
    12     2     4   am
    13     4    29    1
    14    29    30    1
    15    30    31   ar
    16    31    32   ar
    17    32    33   ar
    18    33    34    1
    19    33    35   ar
    20    35    36   ar
    21     1     6    1
    22     6     7   ar
    23     7     8   ar
    24     8     9   ar
    25     9    10    1
    26     9    11   ar
    27    11    12   ar
    28    16    17    1
    29    17    18    1
    30    23    24   ar
    31    24    25   ar
    32    25    26   ar
    33    26    21   ar
    34    18    13    1
    35    36    30   ar
    36    12     6   ar
    37    20    27    1
    38    20    28    1
    39     4     5    1
@<TRIPOS>MOLECULE
*****
 36 39 0 0 0
SMALL
GASTEIGER

@<TRIPOS>ATOM
      1 N         141.3031  141.0476  162.5584 N.am    1  UNL1       -0.2448
      2 C         141.4285  140.0498  161.4456 C.2     1  UNL1        0.3079
      3 O         141.9028  138.6568  161.7372 O.2     1  UNL1       -0.2522
      4 N         141.0797  140.4447  160.0412 N.am    1  UNL1       -0.2844
      5 H         140.7684  141.3589  159.8498 H       1  UNL1        0.1513
      6 C         140.8288  142.4406  162.2669 C.ar    1  UNL1        0.0553
      7 C         139.4030  142.8195  162.5381 C.ar    1  UNL1        0.0158
      8 C         138.9288  144.2124  162.2465 C.ar    1  UNL1        0.0127
      9 C         139.8803  145.2263  161.6838 C.ar    1  UNL1        0.0578
     10 CL        139.4061  146.6192  161.3923 Cl      1  UNL1       -0.0822
     11 C         141.3061  144.8473  161.4126 C.ar    1  UNL1        0.0127
     12 C         141.7803  143.4544  161.7042 C.ar    1  UNL1        0.0158
     13 N         142.3496  139.8629  166.7716 N.3     1  UNL1       -0.2688
     14 C         140.9899  139.5504  166.2205 C.3     1  UNL1        0.0741
     15 C         140.6411  139.9453  164.8161 C.3     1  UNL1        0.0376
     16 C         141.6519  140.6527  163.9628 C.3     1  UNL1        0.0840
     17 C         143.0115  140.9651  164.5140 C.3     1  UNL1        0.0376
     18 C         143.3603  140.5702  165.9185 C.3     1  UNL1        0.0741
     19 C         142.6984  139.4679  168.1761 C.3     1  UNL1        0.0993
     20 N         143.3220  143.7435  171.0623 N.pl3   1  UNL1       -0.3426
     21 C         142.5852  142.4703  170.7689 C.ar    1  UNL1        0.1251
     22 C         143.0102  141.6057  169.6192 C.ar    1  UNL1        0.0310
     23 C         142.2734  140.3325  169.3258 C.ar    1  UNL1       -0.0018
     24 C         141.1116  139.9239  170.1821 C.ar    1  UNL1        0.0179
     25 C         140.6866  140.7885  171.3318 C.ar    1  UNL1        0.1000
     26 N         141.4234  142.0617  171.6252 N.ar    1  UNL1       -0.2296
     27 H         144.0845  144.0117  170.5003 H       1  UNL1        0.1437
     28 H         143.0430  144.3110  171.8169 H       1  UNL1        0.1437
     29 C         141.2051  139.4467  158.9284 C.3     1  UNL1        0.1177
     30 C         142.3523  139.5366  157.9661 C.ar    1  UNL1       -0.0024
     31 C         142.4725  138.5445  156.8475 C.ar    1  UNL1       -0.0003
     32 C         143.6197  138.6344  155.8853 C.ar    1  UNL1        0.0294
     33 C         144.6467  139.7164  156.0417 C.ar    1  UNL1        0.1401
     34 F         145.7939  139.8063  155.0795 F       1  UNL1       -0.2042
     35 C         144.5265  140.7085  157.1603 C.ar    1  UNL1        0.0294
     36 C         143.3793  140.6186  158.1225 C.ar    1  UNL1       -0.0003
@<TRIPOS>BOND
     1    20    21    1
     2    21    22   ar
     3    22    23   ar
     4    23    19    1
     5    19    13    1
     6    13    14    1
     7    14    15    1
     8    15    16    1
     9    16     1    1
    10     1     2   am
    11     2     3    2
    12     2     4   am
    13     4    29    1
    14    29    30    1
    15    30    31   ar
    16    31    32   ar
    17    32    33   ar
    18    33    34    1
    19    33    35   ar
    20    35    36   ar
    21     1     6    1
    22     6     7   ar
    23     7     8   ar
    24     8     9   ar
    25     9    10    1
    26     9    11   ar
    27    11    12   ar
    28    16    17    1
    29    17    18    1
    30    23    24   ar
    31    24    25   ar
    32    25    26   ar
    33    26    21   ar
    34    18    13    1
    35    36    30   ar
    36    12     6   ar
    37    20    27    1
    38    20    28    1
    39     4     5    1
@<TRIPOS>MOLECULE
*****
 36 39 0 0 0
SMALL
GASTEIGER

@<TRIPOS>ATOM
      1 N         140.8647  142.7910  161.0537 N.am    1  UNL1       -0.2448
      2 C         140.2967  143.3534  162.3230 C.2     1  UNL1        0.3079
      3 O         139.5142  144.6328  162.2922 O.2     1  UNL1       -0.2522
      4 N         140.5111  142.6365  163.6230 N.am    1  UNL1       -0.2844
      5 H         141.0247  141.7968  163.6432 H       1  UNL1        0.1513
      6 C         141.6473  141.5116  161.0845 C.ar    1  UNL1        0.0553
      7 C         143.1245  141.5420  161.3431 C.ar    1  UNL1        0.0158
      8 C         143.9069  140.2627  161.3738 C.ar    1  UNL1        0.0127
      9 C         143.2122  138.9529  161.1459 C.ar    1  UNL1        0.0578
     10 CL        143.9947  137.6736  161.1767 Cl      1  UNL1       -0.0822
     11 C         141.7350  138.9226  160.8873 C.ar    1  UNL1        0.0127
     12 C         140.9525  140.2019  160.8566 C.ar    1  UNL1        0.0158
     13 N         140.2214  144.9418  157.1537 N.3     1  UNL1       -0.2688
     14 C         141.2680  145.4256  158.1132 C.3     1  UNL1        0.0741
     15 C         141.4825  144.7087  159.4132 C.3     1  UNL1        0.0376
     16 C         140.6503  143.5080  159.7537 C.3     1  UNL1        0.0840
     17 C         139.6037  143.0242  158.7942 C.3     1  UNL1        0.0376
     18 C         139.3893  143.7412  157.4942 C.3     1  UNL1        0.0741
     19 C         140.0070  145.6587  155.8537 C.3     1  UNL1        0.0993
     20 N         137.7246  149.6593  158.2592 N.pl3   1  UNL1       -0.3426
     21 C         138.4125  149.0889  157.0544 C.ar    1  UNL1        0.1251
     22 C         138.8658  147.6591  157.0564 C.ar    1  UNL1        0.0310
     23 C         139.5536  147.0886  155.8517 C.ar    1  UNL1       -0.0018
     24 C         139.7882  147.9481  154.6449 C.ar    1  UNL1        0.0179
     25 C         139.3349  149.3779  154.6429 C.ar    1  UNL1        0.1000
     26 N         138.6470  149.9483  155.8477 N.ar    1  UNL1       -0.2296
     27 H         137.5706  149.0952  159.0513 H       1  UNL1        0.1437
     28 H         137.4271  150.5977  158.2579 H       1  UNL1        0.1437
     29 C         139.9430  143.1990  164.8923 C.3     1  UNL1        0.1177
     30 C         139.9199  142.3641  166.1382 C.ar    1  UNL1       -0.0024
     31 C         140.4043  142.9399  167.4359 C.ar    1  UNL1       -0.0003
     32 C         140.3812  142.1050  168.6819 C.ar    1  UNL1        0.0294
     33 C         139.8738  140.6944  168.6302 C.ar    1  UNL1        0.1401
     34 F         139.8507  139.8595  169.8761 F       1  UNL1       -0.2042
     35 C         139.3895  140.1186  167.3325 C.ar    1  UNL1        0.0294
     36 C         139.4126  140.9535  166.0866 C.ar    1  UNL1       -0.0003
@<TRIPOS>BOND
     1    20    21    1
     2    21    22   ar
     3    22    23   ar
     4    23    19    1
     5    19    13    1
     6    13    14    1
     7    14    15    1
     8    15    16    1
     9    16     1    1
    10     1     2   am
    11     2     3    2
    12     2     4   am
    13     4    29    1
    14    29    30    1
    15    30    31   ar
    16    31    32   ar
    17    32    33   ar
    18    33    34    1
    19    33    35   ar
    20    35    36   ar
    21     1     6    1
    22     6     7   ar
    23     7     8   ar
    24     8     9   ar
    25     9    10    1
    26     9    11   ar
    27    11    12   ar
    28    16    17    1
    29    17    18    1
    30    23    24   ar
    31    24    25   ar
    32    25    26   ar
    33    26    21   ar
    34    18    13    1
    35    36    30   ar
    36    12     6   ar
    37    20    27    1
    38    20    28    1
    39     4     5    1
