@<TRIPOS>MOLECULE
*****
 27 30 0 0 0
SMALL
GASTEIGER

@<TRIPOS>ATOM
      1 N         140.2709  139.5073  160.7279 N.am    1  UNL1       -0.2779
      2 C         140.0729  138.7730  162.0207 C.2     1  UNL1        0.2842
      3 O         140.3950  137.3107  162.1097 O.2     1  UNL1       -0.2665
      4 H         140.0594  140.4671  160.6695 H       1  UNL1        0.1553
      5 C         143.8048  136.2337  155.8243 C.3     1  UNL1        0.1122
      6 N         142.3518  136.5956  155.9121 N.pl3   1  UNL1       -0.3060
      7 C         141.4189  136.2295  154.7960 C.3     1  UNL1        0.0912
      8 C         139.9659  136.5913  154.8838 C.3     1  UNL1        0.0261
      9 C         139.4457  137.3192  156.0877 C.3     1  UNL1        0.0294
     10 C         140.3785  137.6853  157.2038 C.ar    1  UNL1       -0.0076
     11 C         139.8583  138.4133  158.4078 C.ar    1  UNL1        0.0116
     12 C         140.7911  138.7794  159.5239 C.ar    1  UNL1        0.0504
     13 C         142.2442  138.4175  159.4361 C.ar    1  UNL1        0.0159
     14 C         142.7644  137.6896  158.2322 C.ar    1  UNL1        0.0155
     15 C         141.8315  137.3235  157.1160 C.ar    1  UNL1        0.0439
     16 C         139.5527  139.5010  163.2246 C.ar    1  UNL1        0.1986
     17 C         138.2092  140.1570  163.3460 C.ar    1  UNL1        0.0454
     18 C         138.1108  140.7622  164.7149 C.ar    1  UNL1        0.0408
     19 C         139.3936  140.4802  165.4396 C.ar    1  UNL1        0.1455
     20 O         140.2846  139.7007  164.5186 O.2     1  UNL1       -0.4489
     21 C         139.7267  140.9034  166.8396 C.ar    1  UNL1        0.0346
     22 C         140.3633  142.2387  167.0881 C.ar    1  UNL1        0.0039
     23 C         140.6964  142.6618  168.4881 C.ar    1  UNL1        0.0115
     24 C         140.3929  141.7498  169.6396 C.ar    1  UNL1        0.0577
     25 CL        140.7260  142.1730  171.0396 Cl      1  UNL1       -0.0822
     26 C         139.7562  140.4145  169.3912 C.ar    1  UNL1        0.0115
     27 C         139.4232  139.9913  167.9912 C.ar    1  UNL1        0.0039
@<TRIPOS>BOND
     1     5     6    1
     2     6     7    1
     3     7     8    1
     4     8     9    1
     5     9    10    1
     6    10    11   ar
     7    11    12   ar
     8    12     1    1
     9     1     2   am
    10     2     3    2
    11     2    16    1
    12    16    17   ar
    13    17    18   ar
    14    18    19   ar
    15    19    21    1
    16    21    22   ar
    17    22    23   ar
    18    23    24   ar
    19    24    25    1
    20    24    26   ar
    21    26    27   ar
    22    19    20   ar
    23    12    13   ar
    24    13    14   ar
    25    14    15   ar
    26    15     6    1
    27    15    10   ar
    28    20    16   ar
    29    27    21   ar
    30     1     4    1
@<TRIPOS>MOLECULE
*****
 27 30 0 0 0
SMALL
GASTEIGER

@<TRIPOS>ATOM
      1 N         140.6223  144.7183  160.5947 N.am    1  UNL1       -0.2779
      2 C         139.4658  143.8544  161.0019 C.2     1  UNL1        0.2842
      3 O         138.6148  143.1982  159.9553 O.2     1  UNL1       -0.2665
      4 H         141.1809  145.1490  161.2816 H       1  UNL1        0.1553
      5 C         142.9952  144.8259  154.1442 C.3     1  UNL1        0.1122
      6 N         141.8451  145.5493  154.7796 N.pl3   1  UNL1       -0.3060
      7 C         141.0006  146.4805  153.9613 C.3     1  UNL1        0.0912
      8 C         139.8504  147.2040  154.5967 C.3     1  UNL1        0.0261
      9 C         139.5447  146.9962  156.0504 C.3     1  UNL1        0.0294
     10 C         140.3892  146.0651  156.8687 C.ar    1  UNL1       -0.0076
     11 C         140.0835  145.8573  158.3225 C.ar    1  UNL1        0.0116
     12 C         140.9280  144.9261  159.1409 C.ar    1  UNL1        0.0504
     13 C         142.0782  144.2026  158.5055 C.ar    1  UNL1        0.0159
     14 C         142.3839  144.4104  157.0517 C.ar    1  UNL1        0.0155
     15 C         141.5394  145.3416  156.2333 C.ar    1  UNL1        0.0439
     16 C         139.1601  143.6466  162.4556 C.ar    1  UNL1        0.1986
     17 C         138.0788  144.3333  163.2362 C.ar    1  UNL1        0.0454
     18 C         138.1325  143.8268  164.6470 C.ar    1  UNL1        0.0408
     19 C         139.2471  142.8271  164.7384 C.ar    1  UNL1        0.1455
     20 O         139.8822  142.7157  163.3841 O.2     1  UNL1       -0.4489
     21 C         139.6550  142.0713  165.9683 C.ar    1  UNL1        0.0346
     22 C         139.3036  140.6198  166.1077 C.ar    1  UNL1        0.0039
     23 C         139.7115  139.8641  167.3375 C.ar    1  UNL1        0.0115
     24 C         140.4708  140.5599  168.4280 C.ar    1  UNL1        0.0577
     25 CL        140.8787  139.8042  169.6579 Cl      1  UNL1       -0.0822
     26 C         140.8223  142.0116  168.2887 C.ar    1  UNL1        0.0115
     27 C         140.4144  142.7672  167.0588 C.ar    1  UNL1        0.0039
@<TRIPOS>BOND
     1     5     6    1
     2     6     7    1
     3     7     8    1
     4     8     9    1
     5     9    10    1
     6    10    11   ar
     7    11    12   ar
     8    12     1    1
     9     1     2   am
    10     2     3    2
    11     2    16    1
    12    16    17   ar
    13    17    18   ar
    14    18    19   ar
    15    19    21    1
    16    21    22   ar
    17    22    23   ar
    18    23    24   ar
    19    24    25    1
    20    24    26   ar
    21    26    27   ar
    22    19    20   ar
    23    12    13   ar
    24    13    14   ar
    25    14    15   ar
    26    15     6    1
    27    15    10   ar
    28    20    16   ar
    29    27    21   ar
    30     1     4    1
@<TRIPOS>MOLECULE
*****
 27 30 0 0 0
SMALL
GASTEIGER

@<TRIPOS>ATOM
      1 N         143.0611  137.1950  160.3714 N.am    1  UNL1       -0.2779
      2 C         142.6599  137.6861  159.0121 C.2     1  UNL1        0.2842
      3 O         142.2906  139.1264  158.8138 O.2     1  UNL1       -0.2665
      4 H         143.3035  136.2497  160.5015 H       1  UNL1        0.1553
      5 C         142.1887  140.8540  166.1247 C.3     1  UNL1        0.1122
      6 N         143.1893  140.9916  165.0157 N.pl3   1  UNL1       -0.3060
      7 C         144.2219  142.0783  165.0678 C.3     1  UNL1        0.0912
      8 C         145.2225  142.2158  163.9588 C.3     1  UNL1        0.0261
      9 C         145.1905  141.2667  162.7977 C.3     1  UNL1        0.0294
     10 C         144.1579  140.1800  162.7457 C.ar    1  UNL1       -0.0076
     11 C         144.1258  139.2309  161.5846 C.ar    1  UNL1        0.0116
     12 C         143.0932  138.1442  161.5325 C.ar    1  UNL1        0.0504
     13 C         142.0926  138.0066  162.6415 C.ar    1  UNL1        0.0159
     14 C         142.1246  138.9557  163.8025 C.ar    1  UNL1        0.0155
     15 C         143.1573  140.0425  163.8547 C.ar    1  UNL1        0.0439
     16 C         142.6278  136.7369  157.8511 C.ar    1  UNL1        0.1986
     17 C         141.9270  136.9653  156.5446 C.ar    1  UNL1        0.0454
     18 C         142.1570  135.7622  155.6787 C.ar    1  UNL1        0.0408
     19 C         143.0000  134.7903  156.4501 C.ar    1  UNL1        0.1455
     20 O         143.2909  135.3928  157.7926 O.2     1  UNL1       -0.4489
     21 C         143.4695  133.4511  155.9641 C.ar    1  UNL1        0.0346
     22 C         144.4853  132.6805  156.7543 C.ar    1  UNL1        0.0039
     23 C         144.9548  131.3413  156.2683 C.ar    1  UNL1        0.0115
     24 C         144.4086  130.7728  154.9922 C.ar    1  UNL1        0.0577
     25 CL        144.8782  129.4336  154.5063 Cl      1  UNL1       -0.0822
     26 C         143.3928  131.5434  154.2020 C.ar    1  UNL1        0.0115
     27 C         142.9233  132.8826  154.6880 C.ar    1  UNL1        0.0039
@<TRIPOS>BOND
     1     5     6    1
     2     6     7    1
     3     7     8    1
     4     8     9    1
     5     9    10    1
     6    10    11   ar
     7    11    12   ar
     8    12     1    1
     9     1     2   am
    10     2     3    2
    11     2    16    1
    12    16    17   ar
    13    17    18   ar
    14    18    19   ar
    15    19    21    1
    16    21    22   ar
    17    22    23   ar
    18    23    24   ar
    19    24    25    1
    20    24    26   ar
    21    26    27   ar
    22    19    20   ar
    23    12    13   ar
    24    13    14   ar
    25    14    15   ar
    26    15     6    1
    27    15    10   ar
    28    20    16   ar
    29    27    21   ar
    30     1     4    1
@<TRIPOS>MOLECULE
*****
 27 30 0 0 0
SMALL
GASTEIGER

@<TRIPOS>ATOM
      1 N         141.9265  143.7778  160.4586 N.am    1  UNL1       -0.2779
      2 C         141.6004  144.3644  161.8000 C.2     1  UNL1        0.2842
      3 O         140.5443  145.4230  161.9190 O.2     1  UNL1       -0.2665
      4 H         142.6197  143.0830  160.3805 H       1  UNL1        0.1553
      5 C         139.4076  146.9495  154.9047 C.3     1  UNL1        0.1122
      6 N         139.0069  145.6654  155.5685 N.pl3   1  UNL1       -0.3060
      7 C         137.8763  144.8533  155.0098 C.3     1  UNL1        0.0912
      8 C         137.4757  143.5692  155.6736 C.3     1  UNL1        0.0261
      9 C         138.2055  143.0973  156.8961 C.3     1  UNL1        0.0294
     10 C         139.3361  143.9094  157.4548 C.ar    1  UNL1       -0.0076
     11 C         140.0660  143.4375  158.6773 C.ar    1  UNL1        0.0116
     12 C         141.1966  144.2497  159.2360 C.ar    1  UNL1        0.0504
     13 C         141.5972  145.5337  158.5723 C.ar    1  UNL1        0.0159
     14 C         140.8674  146.0057  157.3498 C.ar    1  UNL1        0.0155
     15 C         139.7368  145.1935  156.7910 C.ar    1  UNL1        0.0439
     16 C         142.3303  143.8925  163.0225 C.ar    1  UNL1        0.1986
     17 C         143.6766  144.3668  163.4836 C.ar    1  UNL1        0.0454
     18 C         144.0205  143.6309  164.7445 C.ar    1  UNL1        0.0408
     19 C         142.8866  142.7017  165.0628 C.ar    1  UNL1        0.1455
     20 O         141.8421  142.8634  163.9985 O.2     1  UNL1       -0.4489
     21 C         142.8108  141.7738  166.2389 C.ar    1  UNL1        0.0346
     22 C         142.9164  142.3188  167.6323 C.ar    1  UNL1        0.0039
     23 C         142.8405  141.3909  168.8084 C.ar    1  UNL1        0.0115
     24 C         142.6590  139.9179  168.5911 C.ar    1  UNL1        0.0577
     25 CL        142.5831  138.9899  169.7672 Cl      1  UNL1       -0.0822
     26 C         142.5533  139.3727  167.1976 C.ar    1  UNL1        0.0115
     27 C         142.6292  140.3007  166.0216 C.ar    1  UNL1        0.0039
@<TRIPOS>BOND
     1     5     6    1
     2     6     7    1
     3     7     8    1
     4     8     9    1
     5     9    10    1
     6    10    11   ar
     7    11    12   ar
     8    12     1    1
     9     1     2   am
    10     2     3    2
    11     2    16    1
    12    16    17   ar
    13    17    18   ar
    14    18    19   ar
    15    19    21    1
    16    21    22   ar
    17    22    23   ar
    18    23    24   ar
    19    24    25    1
    20    24    26   ar
    21    26    27   ar
    22    19    20   ar
    23    12    13   ar
    24    13    14   ar
    25    14    15   ar
    26    15     6    1
    27    15    10   ar
    28    20    16   ar
    29    27    21   ar
    30     1     4    1
@<TRIPOS>MOLECULE
*****
 27 30 0 0 0
SMALL
GASTEIGER

@<TRIPOS>ATOM
      1 N         143.0913  137.1668  160.5654 N.am    1  UNL1       -0.2779
      2 C         142.6261  137.7026  159.2439 C.2     1  UNL1        0.2842
      3 O         141.8932  139.0098  159.1807 O.2     1  UNL1       -0.2665
      4 H         143.5724  136.3088  160.6069 H       1  UNL1        0.1553
      5 C         143.0261  141.2490  166.0956 C.3     1  UNL1        0.1122
      6 N         142.0210  140.2526  165.5986 N.pl3   1  UNL1       -0.3060
      7 C         140.7483  140.0277  166.3599 C.3     1  UNL1        0.0912
      8 C         139.7432  139.0313  165.8629 C.3     1  UNL1        0.0261
      9 C         140.0107  138.2599  164.6047 C.3     1  UNL1        0.0294
     10 C         141.2834  138.4848  163.8434 C.ar    1  UNL1       -0.0076
     11 C         141.5510  137.7134  162.5851 C.ar    1  UNL1        0.0116
     12 C         142.8237  137.9383  161.8238 C.ar    1  UNL1        0.0504
     13 C         143.8289  138.9346  162.3207 C.ar    1  UNL1        0.0159
     14 C         143.5613  139.7061  163.5790 C.ar    1  UNL1        0.0155
     15 C         142.2885  139.4812  164.3404 C.ar    1  UNL1        0.0439
     16 C         142.8937  136.9312  157.9857 C.ar    1  UNL1        0.1986
     17 C         143.0040  137.5070  156.6050 C.ar    1  UNL1        0.0454
     18 C         143.2765  136.3801  155.6532 C.ar    1  UNL1        0.0408
     19 C         143.3346  135.1078  156.4457 C.ar    1  UNL1        0.1455
     20 O         143.0980  135.4484  157.8872 O.2     1  UNL1       -0.4489
     21 C         143.5853  133.7359  155.8935 C.ar    1  UNL1        0.0346
     22 C         144.5174  132.8001  156.6044 C.ar    1  UNL1        0.0039
     23 C         144.7681  131.4281  156.0522 C.ar    1  UNL1        0.0115
     24 C         144.0866  130.9919  154.7892 C.ar    1  UNL1        0.0577
     25 CL        144.3373  129.6199  154.2370 Cl      1  UNL1       -0.0822
     26 C         143.1544  131.9277  154.0783 C.ar    1  UNL1        0.0115
     27 C         142.9038  133.2997  154.6305 C.ar    1  UNL1        0.0039
@<TRIPOS>BOND
     1     5     6    1
     2     6     7    1
     3     7     8    1
     4     8     9    1
     5     9    10    1
     6    10    11   ar
     7    11    12   ar
     8    12     1    1
     9     1     2   am
    10     2     3    2
    11     2    16    1
    12    16    17   ar
    13    17    18   ar
    14    18    19   ar
    15    19    21    1
    16    21    22   ar
    17    22    23   ar
    18    23    24   ar
    19    24    25    1
    20    24    26   ar
    21    26    27   ar
    22    19    20   ar
    23    12    13   ar
    24    13    14   ar
    25    14    15   ar
    26    15     6    1
    27    15    10   ar
    28    20    16   ar
    29    27    21   ar
    30     1     4    1
@<TRIPOS>MOLECULE
*****
 27 30 0 0 0
SMALL
GASTEIGER

@<TRIPOS>ATOM
      1 N         142.1884  138.3157  159.8897 N.am    1  UNL1       -0.2779
      2 C         142.8300  138.2929  158.5340 C.2     1  UNL1        0.2842
      3 O         143.7016  139.4329  158.0975 O.2     1  UNL1       -0.2665
      4 H         141.6163  137.5674  160.1761 H       1  UNL1        0.1553
      5 C         142.0574  144.0273  163.7121 C.3     1  UNL1        0.1122
      6 N         143.1085  142.9671  163.5663 N.pl3   1  UNL1       -0.3060
      7 C         144.3896  143.0698  164.3398 C.3     1  UNL1        0.0912
      8 C         145.4406  142.0096  164.1941 C.3     1  UNL1        0.0261
      9 C         145.2107  140.8467  163.2749 C.3     1  UNL1        0.0294
     10 C         143.9296  140.7441  162.5015 C.ar    1  UNL1       -0.0076
     11 C         143.6995  139.5812  161.5823 C.ar    1  UNL1        0.0116
     12 C         142.4184  139.4785  160.8089 C.ar    1  UNL1        0.0504
     13 C         141.3673  140.5387  160.9546 C.ar    1  UNL1        0.0159
     14 C         141.5973  141.7016  161.8737 C.ar    1  UNL1        0.0155
     15 C         142.8785  141.8043  162.6472 C.ar    1  UNL1        0.0439
     16 C         142.5999  137.1300  157.6149 C.ar    1  UNL1        0.1986
     17 C         141.4932  137.0060  156.6099 C.ar    1  UNL1        0.0454
     18 C         141.6454  135.6863  155.9133 C.ar    1  UNL1        0.0408
     19 C         142.8462  134.9948  156.4877 C.ar    1  UNL1        0.1455
     20 O         143.4361  135.8870  157.5394 O.2     1  UNL1       -0.4489
     21 C         143.3659  133.6475  156.0818 C.ar    1  UNL1        0.0346
     22 C         142.8741  133.0031  154.8197 C.ar    1  UNL1        0.0039
     23 C         143.3938  131.6558  154.4137 C.ar    1  UNL1        0.0115
     24 C         144.4052  130.9529  155.2698 C.ar    1  UNL1        0.0577
     25 CL        144.9249  129.6056  154.8639 Cl      1  UNL1       -0.0822
     26 C         144.8971  131.5973  156.5320 C.ar    1  UNL1        0.0115
     27 C         144.3774  132.9446  156.9379 C.ar    1  UNL1        0.0039
@<TRIPOS>BOND
     1     5     6    1
     2     6     7    1
     3     7     8    1
     4     8     9    1
     5     9    10    1
     6    10    11   ar
     7    11    12   ar
     8    12     1    1
     9     1     2   am
    10     2     3    2
    11     2    16    1
    12    16    17   ar
    13    17    18   ar
    14    18    19   ar
    15    19    21    1
    16    21    22   ar
    17    22    23   ar
    18    23    24   ar
    19    24    25    1
    20    24    26   ar
    21    26    27   ar
    22    19    20   ar
    23    12    13   ar
    24    13    14   ar
    25    14    15   ar
    26    15     6    1
    27    15    10   ar
    28    20    16   ar
    29    27    21   ar
    30     1     4    1
@<TRIPOS>MOLECULE
*****
 27 30 0 0 0
SMALL
GASTEIGER

@<TRIPOS>ATOM
      1 N         143.6441  138.3460  160.8899 N.am    1  UNL1       -0.2779
      2 C         142.6723  138.5539  159.7663 C.2     1  UNL1        0.2842
      3 O         141.7362  139.7257  159.7915 O.2     1  UNL1       -0.2665
      4 H         144.2584  137.5769  160.8733 H       1  UNL1        0.1553
      5 C         144.4969  143.5150  165.3401 C.3     1  UNL1        0.1122
      6 N         143.7871  142.2015  165.4850 N.pl3   1  UNL1       -0.3060
      7 C         143.1131  141.8519  166.7786 C.3     1  UNL1        0.0912
      8 C         142.4034  140.5384  166.9234 C.3     1  UNL1        0.0261
      9 C         142.3676  139.5745  165.7747 C.3     1  UNL1        0.0294
     10 C         143.0416  139.9241  164.4811 C.ar    1  UNL1       -0.0076
     11 C         143.0058  138.9602  163.3323 C.ar    1  UNL1        0.0116
     12 C         143.6798  139.3099  162.0387 C.ar    1  UNL1        0.0504
     13 C         144.3896  140.6233  161.8938 C.ar    1  UNL1        0.0159
     14 C         144.4254  141.5872  163.0425 C.ar    1  UNL1        0.0155
     15 C         143.7513  141.2376  164.3362 C.ar    1  UNL1        0.0439
     16 C         142.6366  137.5901  158.6176 C.ar    1  UNL1        0.1986
     17 C         141.9330  137.8025  157.3099 C.ar    1  UNL1        0.0454
     18 C         142.1597  136.5882  156.4590 C.ar    1  UNL1        0.0408
     19 C         143.0035  135.6254  157.2407 C.ar    1  UNL1        0.1455
     20 O         143.2981  136.2445  158.5748 O.2     1  UNL1       -0.4489
     21 C         143.4705  134.2796  156.7708 C.ar    1  UNL1        0.0346
     22 C         143.0641  133.7749  155.4180 C.ar    1  UNL1        0.0039
     23 C         143.5311  132.4291  154.9481 C.ar    1  UNL1        0.0115
     24 C         144.4046  131.5880  155.8310 C.ar    1  UNL1        0.0577
     25 CL        144.8716  130.2422  155.3611 Cl      1  UNL1       -0.0822
     26 C         144.8111  132.0927  157.1839 C.ar    1  UNL1        0.0115
     27 C         144.3440  133.4384  157.6537 C.ar    1  UNL1        0.0039
@<TRIPOS>BOND
     1     5     6    1
     2     6     7    1
     3     7     8    1
     4     8     9    1
     5     9    10    1
     6    10    11   ar
     7    11    12   ar
     8    12     1    1
     9     1     2   am
    10     2     3    2
    11     2    16    1
    12    16    17   ar
    13    17    18   ar
    14    18    19   ar
    15    19    21    1
    16    21    22   ar
    17    22    23   ar
    18    23    24   ar
    19    24    25    1
    20    24    26   ar
    21    26    27   ar
    22    19    20   ar
    23    12    13   ar
    24    13    14   ar
    25    14    15   ar
    26    15     6    1
    27    15    10   ar
    28    20    16   ar
    29    27    21   ar
    30     1     4    1
@<TRIPOS>MOLECULE
*****
 27 30 0 0 0
SMALL
GASTEIGER

@<TRIPOS>ATOM
      1 N         139.3059  141.8207  160.7960 N.am    1  UNL1       -0.2779
      2 C         138.5956  142.3963  161.9852 C.2     1  UNL1        0.2842
      3 O         137.8189  143.6724  161.8496 O.2     1  UNL1       -0.2665
      4 H         139.8156  140.9832  160.8850 H       1  UNL1        0.1553
      5 C         138.0473  144.1800  154.4636 C.3     1  UNL1        0.1122
      6 N         139.0404  144.6225  155.4970 N.pl3   1  UNL1       -0.3060
      7 C         139.9671  145.7655  155.2057 C.3     1  UNL1        0.0912
      8 C         140.9602  146.2080  156.2391 C.3     1  UNL1        0.0261
      9 C         141.0266  145.5075  157.5638 C.3     1  UNL1        0.0294
     10 C         140.0999  144.3646  157.8551 C.ar    1  UNL1       -0.0076
     11 C         140.1662  143.6641  159.1799 C.ar    1  UNL1        0.0116
     12 C         139.2395  142.5212  159.4712 C.ar    1  UNL1        0.0504
     13 C         138.2465  142.0787  158.4378 C.ar    1  UNL1        0.0159
     14 C         138.1801  142.7791  157.1131 C.ar    1  UNL1        0.0155
     15 C         139.1068  143.9221  156.8217 C.ar    1  UNL1        0.0439
     16 C         138.6620  141.6958  163.3099 C.ar    1  UNL1        0.1986
     17 C         137.9668  140.4152  163.6659 C.ar    1  UNL1        0.0454
     18 C         138.3103  140.0808  165.0872 C.ar    1  UNL1        0.0408
     19 C         139.2179  141.1549  165.6096 C.ar    1  UNL1        0.1455
     20 O         139.4351  142.1530  164.5112 O.2     1  UNL1       -0.4489
     21 C         139.8050  141.2195  166.9884 C.ar    1  UNL1        0.0346
     22 C         140.6348  142.4008  167.3957 C.ar    1  UNL1        0.0039
     23 C         141.2219  142.4654  168.7745 C.ar    1  UNL1        0.0115
     24 C         140.9792  141.3487  169.7461 C.ar    1  UNL1        0.0577
     25 CL        141.5664  141.4133  171.1249 Cl      1  UNL1       -0.0822
     26 C         140.1494  140.1672  169.3389 C.ar    1  UNL1        0.0115
     27 C         139.5624  140.1027  167.9600 C.ar    1  UNL1        0.0039
@<TRIPOS>BOND
     1     5     6    1
     2     6     7    1
     3     7     8    1
     4     8     9    1
     5     9    10    1
     6    10    11   ar
     7    11    12   ar
     8    12     1    1
     9     1     2   am
    10     2     3    2
    11     2    16    1
    12    16    17   ar
    13    17    18   ar
    14    18    19   ar
    15    19    21    1
    16    21    22   ar
    17    22    23   ar
    18    23    24   ar
    19    24    25    1
    20    24    26   ar
    21    26    27   ar
    22    19    20   ar
    23    12    13   ar
    24    13    14   ar
    25    14    15   ar
    26    15     6    1
    27    15    10   ar
    28    20    16   ar
    29    27    21   ar
    30     1     4    1
@<TRIPOS>MOLECULE
*****
 27 30 0 0 0
SMALL
GASTEIGER

@<TRIPOS>ATOM
      1 N         140.9692  143.6181  161.2507 N.am    1  UNL1       -0.2779
      2 C         142.4355  143.5186  161.5507 C.2     1  UNL1        0.2842
      3 O         143.4349  143.5717  160.4335 O.2     1  UNL1       -0.2665
      4 H         140.3132  143.5832  161.9840 H       1  UNL1        0.1553
      5 C         138.6536  143.0257  154.8057 C.3     1  UNL1        0.1122
      6 N         139.1017  144.2287  155.5814 N.pl3   1  UNL1       -0.3060
      7 C         139.0830  145.5845  154.9399 C.3     1  UNL1        0.0912
      8 C         139.5312  146.7875  155.7156 C.3     1  UNL1        0.0261
      9 C         139.9980  146.6349  157.1329 C.3     1  UNL1        0.0294
     10 C         140.0167  145.2792  157.7744 C.ar    1  UNL1       -0.0076
     11 C         140.4836  145.1265  159.1918 C.ar    1  UNL1        0.0116
     12 C         140.5023  143.7708  159.8333 C.ar    1  UNL1        0.0504
     13 C         140.0542  142.5677  159.0576 C.ar    1  UNL1        0.0159
     14 C         139.5873  142.7203  157.6403 C.ar    1  UNL1        0.0155
     15 C         139.5686  144.0761  156.9987 C.ar    1  UNL1        0.0439
     16 C         142.9023  143.3659  162.9680 C.ar    1  UNL1        0.1986
     17 C         143.9101  144.2330  163.6626 C.ar    1  UNL1        0.0454
     18 C         144.0739  143.7223  165.0635 C.ar    1  UNL1        0.0408
     19 C         143.1673  142.5395  165.2346 C.ar    1  UNL1        0.1455
     20 O         142.4432  142.3193  163.9395 O.2     1  UNL1       -0.4489
     21 C         143.0121  141.7208  166.4818 C.ar    1  UNL1        0.0346
     22 C         142.7307  140.2507  166.3838 C.ar    1  UNL1        0.0039
     23 C         142.5755  139.4319  167.6310 C.ar    1  UNL1        0.0115
     24 C         142.7016  140.0833  168.9763 C.ar    1  UNL1        0.0577
     25 CL        142.5464  139.2645  170.2236 Cl      1  UNL1       -0.0822
     26 C         142.9829  141.5535  169.0744 C.ar    1  UNL1        0.0115
     27 C         143.1381  142.3721  167.8271 C.ar    1  UNL1        0.0039
@<TRIPOS>BOND
     1     5     6    1
     2     6     7    1
     3     7     8    1
     4     8     9    1
     5     9    10    1
     6    10    11   ar
     7    11    12   ar
     8    12     1    1
     9     1     2   am
    10     2     3    2
    11     2    16    1
    12    16    17   ar
    13    17    18   ar
    14    18    19   ar
    15    19    21    1
    16    21    22   ar
    17    22    23   ar
    18    23    24   ar
    19    24    25    1
    20    24    26   ar
    21    26    27   ar
    22    19    20   ar
    23    12    13   ar
    24    13    14   ar
    25    14    15   ar
    26    15     6    1
    27    15    10   ar
    28    20    16   ar
    29    27    21   ar
    30     1     4    1
