@<TRIPOS>MOLECULE
*****
 38 41 0 0 0
SMALL
GASTEIGER

@<TRIPOS>ATOM
      1 N         140.8927  144.4914  158.6832 N.am    1  UNL1       -0.2794
      2 C         140.6118  145.0481  160.0474 C.2     1  UNL1        0.2495
      3 O         139.4709  146.0009  160.2484 O.2     1  UNL1       -0.2698
      4 H         141.6416  143.8661  158.5513 H       1  UNL1        0.1552
      5 N         139.1404  142.4534  157.3506 N.pl3   1  UNL1       -0.3560
      6 C         139.1565  143.8686  156.8535 C.ar    1  UNL1        0.0552
      7 C         138.2965  144.2647  155.6902 C.ar    1  UNL1        0.0153
      8 C         138.3126  145.6799  155.1932 C.ar    1  UNL1        0.0013
      9 C         139.1887  146.6989  155.8595 C.ar    1  UNL1        0.0013
     10 C         140.0487  146.3027  157.0228 C.ar    1  UNL1        0.0159
     11 C         140.0326  144.8876  157.5198 C.ar    1  UNL1        0.0636
     12 H         138.5654  141.7846  156.9132 H       1  UNL1        0.1424
     13 H         139.7049  142.1934  158.1141 H       1  UNL1        0.1424
     14 C         139.2048  148.1141  155.3624 C.ar    1  UNL1        0.0000
     15 C         138.5314  149.1950  156.1549 C.ar    1  UNL1        0.0000
     16 C         138.5475  150.6102  155.6579 C.ar    1  UNL1        0.0000
     17 C         139.2370  150.9444  154.3684 C.ar    1  UNL1        0.0000
     18 C         139.9104  149.8635  153.5759 C.ar    1  UNL1        0.0000
     19 C         139.8943  148.4483  154.0729 C.ar    1  UNL1        0.0000
     20 C         141.4719  144.6519  161.2108 C.ar    1  UNL1        0.0537
     21 C         142.6336  143.7258  161.0037 C.ar    1  UNL1        0.0042
     22 C         143.4937  143.3297  162.1670 C.ar    1  UNL1       -0.0025
     23 C         143.1921  143.8596  163.5374 C.ar    1  UNL1       -0.0026
     24 C         142.0305  144.7857  163.7445 C.ar    1  UNL1       -0.0025
     25 C         141.1704  145.1819  162.5813 C.ar    1  UNL1        0.0042
     26 C         144.0522  143.4635  164.7008 C.3     1  UNL1        0.1163
     27 N         143.4622  142.6841  165.8385 N.am    1  UNL1       -0.3004
     28 C         143.2193  141.2112  165.6924 C.2     1  UNL1        0.2230
     29 O         143.5663  140.5176  164.4084 O.2     1  UNL1       -0.2751
     30 H         143.2345  143.1393  166.6812 H       1  UNL1        0.1497
     31 C         142.6294  140.4318  166.8301 C.3     1  UNL1        0.0898
     32 C         141.1600  140.5208  167.1180 C.3     1  UNL1        0.0375
     33 C         140.6741  141.2966  168.3063 C.ar    1  UNL1       -0.0025
     34 C         140.9150  142.7749  168.3863 C.ar    1  UNL1       -0.0011
     35 C         140.4291  143.5507  169.5747 C.ar    1  UNL1        0.0204
     36 C         139.7024  142.8481  170.6829 C.ar    1  UNL1        0.0989
     37 N         139.4616  141.3697  170.6029 N.ar    1  UNL1       -0.2426
     38 C         139.9474  140.5939  169.4146 C.ar    1  UNL1        0.0946
@<TRIPOS>BOND
     1     5     6    1
     2     6     7   ar
     3     7     8   ar
     4     8     9   ar
     5     9    14    1
     6    14    15   ar
     7    15    16   ar
     8    16    17   ar
     9    17    18   ar
    10    18    19   ar
    11     9    10   ar
    12    10    11   ar
    13    11     1    1
    14     1     2   am
    15     2     3    2
    16     2    20    1
    17    20    21   ar
    18    21    22   ar
    19    22    23   ar
    20    23    26    1
    21    26    27    1
    22    27    28   am
    23    28    29    2
    24    28    31    1
    25    31    32    1
    26    32    33    1
    27    33    34   ar
    28    34    35   ar
    29    35    36   ar
    30    36    37   ar
    31    37    38   ar
    32    23    24   ar
    33    24    25   ar
    34    11     6   ar
    35    25    20   ar
    36    19    14   ar
    37    38    33   ar
    38     5    12    1
    39     5    13    1
    40     1     4    1
    41    27    30    1
@<TRIPOS>MOLECULE
*****
 38 41 0 0 0
SMALL
GASTEIGER

@<TRIPOS>ATOM
      1 N         140.8409  144.5495  158.6576 N.am    1  UNL1       -0.2794
      2 C         140.5765  145.1133  160.0222 C.2     1  UNL1        0.2495
      3 O         139.4694  146.1055  160.2221 O.2     1  UNL1       -0.2698
      4 H         141.5675  143.8983  158.5264 H       1  UNL1        0.1552
      5 N         139.1563  142.5369  157.2045 N.pl3   1  UNL1       -0.3560
      6 C         139.1559  143.9715  156.7663 C.ar    1  UNL1        0.0552
      7 C         138.3132  144.3998  155.6017 C.ar    1  UNL1        0.0153
      8 C         138.3128  145.8343  155.1636 C.ar    1  UNL1        0.0013
      9 C         139.1551  146.8406  155.8901 C.ar    1  UNL1        0.0013
     10 C         139.9978  146.4123  157.0548 C.ar    1  UNL1        0.0159
     11 C         139.9982  144.9777  157.4929 C.ar    1  UNL1        0.0636
     12 H         138.6034  141.8764  156.7276 H       1  UNL1        0.1424
     13 H         139.7093  142.2558  157.9689 H       1  UNL1        0.1424
     14 C         139.1547  148.2752  155.4520 C.ar    1  UNL1        0.0000
     15 C         138.4773  149.3161  156.2931 C.ar    1  UNL1        0.0000
     16 C         138.4769  150.7507  155.8550 C.ar    1  UNL1        0.0000
     17 C         139.1540  151.1444  154.5758 C.ar    1  UNL1        0.0000
     18 C         139.8315  150.1035  153.7346 C.ar    1  UNL1        0.0000
     19 C         139.8318  148.6689  154.1728 C.ar    1  UNL1        0.0000
     20 C         141.4192  144.6850  161.1869 C.ar    1  UNL1        0.0537
     21 C         142.5978  143.7832  160.9684 C.ar    1  UNL1        0.0042
     22 C         143.4405  143.3549  162.1330 C.ar    1  UNL1       -0.0025
     23 C         143.1046  143.8285  163.5161 C.ar    1  UNL1       -0.0026
     24 C         141.9261  144.7303  163.7345 C.ar    1  UNL1       -0.0025
     25 C         141.0834  145.1586  162.5699 C.ar    1  UNL1        0.0042
     26 C         143.9473  143.4002  164.6808 C.3     1  UNL1        0.1163
     27 N         143.4618  142.3193  165.6006 N.am    1  UNL1       -0.3004
     28 C         143.5457  140.8822  165.1791 C.2     1  UNL1        0.2230
     29 O         144.1151  140.5260  163.8379 O.2     1  UNL1       -0.2751
     30 H         143.0881  142.5531  166.4808 H       1  UNL1        0.1497
     31 C         143.0602  139.8013  166.0988 C.3     1  UNL1        0.0898
     32 C         142.8119  138.4205  165.5682 C.3     1  UNL1        0.0375
     33 C         141.6224  138.1558  164.6935 C.ar    1  UNL1       -0.0025
     34 C         140.2363  138.3119  165.2451 C.ar    1  UNL1       -0.0011
     35 C         139.0468  138.0472  164.3704 C.ar    1  UNL1        0.0204
     36 C         139.2434  137.6265  162.9442 C.ar    1  UNL1        0.0989
     37 N         140.6295  137.4704  162.3925 N.ar    1  UNL1       -0.2426
     38 C         141.8190  137.7351  163.2672 C.ar    1  UNL1        0.0946
@<TRIPOS>BOND
     1     5     6    1
     2     6     7   ar
     3     7     8   ar
     4     8     9   ar
     5     9    14    1
     6    14    15   ar
     7    15    16   ar
     8    16    17   ar
     9    17    18   ar
    10    18    19   ar
    11     9    10   ar
    12    10    11   ar
    13    11     1    1
    14     1     2   am
    15     2     3    2
    16     2    20    1
    17    20    21   ar
    18    21    22   ar
    19    22    23   ar
    20    23    26    1
    21    26    27    1
    22    27    28   am
    23    28    29    2
    24    28    31    1
    25    31    32    1
    26    32    33    1
    27    33    34   ar
    28    34    35   ar
    29    35    36   ar
    30    36    37   ar
    31    37    38   ar
    32    23    24   ar
    33    24    25   ar
    34    11     6   ar
    35    25    20   ar
    36    19    14   ar
    37    38    33   ar
    38     5    12    1
    39     5    13    1
    40     1     4    1
    41    27    30    1
@<TRIPOS>MOLECULE
*****
 38 41 0 0 0
SMALL
GASTEIGER

@<TRIPOS>ATOM
      1 N         141.4889  138.4124  158.6907 N.am    1  UNL1       -0.2794
      2 C         141.9587  138.2987  160.1106 C.2     1  UNL1        0.2495
      3 O         143.3226  137.7497  160.4077 O.2     1  UNL1       -0.2698
      4 H         140.5937  138.7727  158.4957 H       1  UNL1        0.1552
      5 N         143.1813  140.4291  157.2523 N.pl3   1  UNL1       -0.3560
      6 C         143.2292  138.9852  156.8486 C.ar    1  UNL1        0.0552
      7 C         144.1233  138.5497  155.7257 C.ar    1  UNL1        0.0153
      8 C         144.1712  137.1059  155.3219 C.ar    1  UNL1        0.0013
      9 C         143.3250  136.0975  156.0411 C.ar    1  UNL1        0.0013
     10 C         142.4310  136.5330  157.1639 C.ar    1  UNL1        0.0159
     11 C         142.3831  137.9769  157.5677 C.ar    1  UNL1        0.0636
     12 H         143.7367  141.0909  156.7803 H       1  UNL1        0.1424
     13 H         142.5945  140.7149  157.9893 H       1  UNL1        0.1424
     14 C         143.3730  134.6537  155.6373 C.ar    1  UNL1        0.0000
     15 C         144.1591  133.6720  156.4547 C.ar    1  UNL1        0.0000
     16 C         144.2070  132.2282  156.0509 C.ar    1  UNL1        0.0000
     17 C         143.4688  131.7660  154.8298 C.ar    1  UNL1        0.0000
     18 C         142.6826  132.7477  154.0124 C.ar    1  UNL1        0.0000
     19 C         142.6347  134.1915  154.4161 C.ar    1  UNL1        0.0000
     20 C         141.0646  138.7342  161.2336 C.ar    1  UNL1        0.0537
     21 C         141.4647  139.8859  162.1073 C.ar    1  UNL1        0.0042
     22 C         140.5706  140.3214  163.2302 C.ar    1  UNL1       -0.0025
     23 C         139.2764  139.6052  163.4794 C.ar    1  UNL1       -0.0026
     24 C         138.8763  138.4535  162.6056 C.ar    1  UNL1       -0.0025
     25 C         139.7704  138.0180  161.4827 C.ar    1  UNL1        0.0042
     26 C         138.3823  140.0407  164.6023 C.3     1  UNL1        0.1163
     27 N         138.3747  141.4748  165.0420 N.am    1  UNL1       -0.3004
     28 C         137.7264  142.5193  164.1825 C.2     1  UNL1        0.2230
     29 O         137.0857  142.1297  162.8834 O.2     1  UNL1       -0.2751
     30 H         138.7952  141.7305  165.8946 H       1  UNL1        0.1497
     31 C         137.7188  143.9534  164.6221 C.3     1  UNL1        0.0898
     32 C         139.0034  144.6282  165.0020 C.3     1  UNL1        0.0375
     33 C         140.2260  144.4464  164.1520 C.ar    1  UNL1       -0.0025
     34 C         141.3919  143.6600  164.6737 C.ar    1  UNL1       -0.0011
     35 C         142.6144  143.4782  163.8238 C.ar    1  UNL1        0.0204
     36 C         142.6710  144.0828  162.4522 C.ar    1  UNL1        0.0989
     37 N         141.5051  144.8693  161.9305 N.ar    1  UNL1       -0.2426
     38 C         140.2825  145.0511  162.7804 C.ar    1  UNL1        0.0946
@<TRIPOS>BOND
     1     5     6    1
     2     6     7   ar
     3     7     8   ar
     4     8     9   ar
     5     9    14    1
     6    14    15   ar
     7    15    16   ar
     8    16    17   ar
     9    17    18   ar
    10    18    19   ar
    11     9    10   ar
    12    10    11   ar
    13    11     1    1
    14     1     2   am
    15     2     3    2
    16     2    20    1
    17    20    21   ar
    18    21    22   ar
    19    22    23   ar
    20    23    26    1
    21    26    27    1
    22    27    28   am
    23    28    29    2
    24    28    31    1
    25    31    32    1
    26    32    33    1
    27    33    34   ar
    28    34    35   ar
    29    35    36   ar
    30    36    37   ar
    31    37    38   ar
    32    23    24   ar
    33    24    25   ar
    34    11     6   ar
    35    25    20   ar
    36    19    14   ar
    37    38    33   ar
    38     5    12    1
    39     5    13    1
    40     1     4    1
    41    27    30    1
@<TRIPOS>MOLECULE
*****
 38 41 0 0 0
SMALL
GASTEIGER

@<TRIPOS>ATOM
      1 N         139.5889  144.5802  158.3402 N.am    1  UNL1       -0.2794
      2 C         140.5457  144.8005  159.4742 C.2     1  UNL1        0.2495
      3 O         141.8196  145.5583  159.2442 O.2     1  UNL1       -0.2698
      4 H         138.7528  144.0828  158.4912 H       1  UNL1        0.1552
      5 N         140.8883  142.8107  156.2955 N.pl3   1  UNL1       -0.3560
      6 C         140.5557  144.2329  155.9538 C.ar    1  UNL1        0.0552
      7 C         140.8727  144.7703  154.5898 C.ar    1  UNL1        0.0153
      8 C         140.5401  146.1925  154.2481 C.ar    1  UNL1        0.0013
      9 C         139.8904  147.0772  155.2704 C.ar    1  UNL1        0.0013
     10 C         139.5734  146.5398  156.6344 C.ar    1  UNL1        0.0159
     11 C         139.9060  145.1176  156.9761 C.ar    1  UNL1        0.0636
     12 H         141.3147  142.2300  155.6245 H       1  UNL1        0.1424
     13 H         140.6802  142.4580  157.1908 H       1  UNL1        0.1424
     14 C         139.5578  148.4994  154.9287 C.ar    1  UNL1        0.0000
     15 C         139.9980  149.0782  153.6168 C.ar    1  UNL1        0.0000
     16 C         139.6653  150.5004  153.2751 C.ar    1  UNL1        0.0000
     17 C         138.8925  151.3438  154.2453 C.ar    1  UNL1        0.0000
     18 C         138.4523  150.7650  155.5572 C.ar    1  UNL1        0.0000
     19 C         138.7849  149.3428  155.8989 C.ar    1  UNL1        0.0000
     20 C         140.2287  144.2631  160.8383 C.ar    1  UNL1        0.0537
     21 C         140.0599  142.7866  161.0421 C.ar    1  UNL1        0.0042
     22 C         139.7429  142.2491  162.4061 C.ar    1  UNL1       -0.0025
     23 C         139.5945  143.1882  163.5663 C.ar    1  UNL1       -0.0026
     24 C         139.7633  144.6646  163.3625 C.ar    1  UNL1       -0.0025
     25 C         140.0803  145.2021  161.9985 C.ar    1  UNL1        0.0042
     26 C         139.2775  142.6507  164.9304 C.3     1  UNL1        0.1163
     27 N         138.5063  141.3720  165.0721 N.am    1  UNL1       -0.3004
     28 C         139.1076  140.2109  165.8071 C.2     1  UNL1        0.2230
     29 O         140.4802  140.3286  166.4005 O.2     1  UNL1       -0.2751
     30 H         137.6054  141.2947  164.6826 H       1  UNL1        0.1497
     31 C         138.3364  138.9322  165.9487 C.3     1  UNL1        0.0898
     32 C         138.7581  137.7133  165.1830 C.3     1  UNL1        0.0375
     33 C         139.2932  137.8515  163.7885 C.ar    1  UNL1       -0.0025
     34 C         138.4423  138.4641  162.7159 C.ar    1  UNL1       -0.0011
     35 C         138.9774  138.6023  161.3215 C.ar    1  UNL1        0.0204
     36 C         140.3634  138.1279  160.9996 C.ar    1  UNL1        0.0989
     37 N         141.2145  137.5152  162.0722 N.ar    1  UNL1       -0.2426
     38 C         140.6794  137.3770  163.4667 C.ar    1  UNL1        0.0946
@<TRIPOS>BOND
     1     5     6    1
     2     6     7   ar
     3     7     8   ar
     4     8     9   ar
     5     9    14    1
     6    14    15   ar
     7    15    16   ar
     8    16    17   ar
     9    17    18   ar
    10    18    19   ar
    11     9    10   ar
    12    10    11   ar
    13    11     1    1
    14     1     2   am
    15     2     3    2
    16     2    20    1
    17    20    21   ar
    18    21    22   ar
    19    22    23   ar
    20    23    26    1
    21    26    27    1
    22    27    28   am
    23    28    29    2
    24    28    31    1
    25    31    32    1
    26    32    33    1
    27    33    34   ar
    28    34    35   ar
    29    35    36   ar
    30    36    37   ar
    31    37    38   ar
    32    23    24   ar
    33    24    25   ar
    34    11     6   ar
    35    25    20   ar
    36    19    14   ar
    37    38    33   ar
    38     5    12    1
    39     5    13    1
    40     1     4    1
    41    27    30    1
@<TRIPOS>MOLECULE
*****
 38 41 0 0 0
SMALL
GASTEIGER

@<TRIPOS>ATOM
      1 N         141.8010  138.3165  158.6234 N.am    1  UNL1       -0.2794
      2 C         140.3029  138.3743  158.5759 C.2     1  UNL1        0.2495
      3 O         139.5588  137.6578  157.4883 O.2     1  UNL1       -0.2698
      4 H         142.2894  138.7868  159.3373 H       1  UNL1        0.1552
      5 N         143.0809  139.7505  156.3201 N.pl3   1  UNL1       -0.3560
      6 C         143.1950  138.2590  156.4317 C.ar    1  UNL1        0.0552
      7 C         143.9490  137.4846  155.3917 C.ar    1  UNL1        0.0153
      8 C         144.0631  135.9931  155.5034 C.ar    1  UNL1        0.0013
      9 C         143.4232  135.2761  156.6550 C.ar    1  UNL1        0.0013
     10 C         142.6691  136.0505  157.6950 C.ar    1  UNL1        0.0159
     11 C         142.5551  137.5420  157.5834 C.ar    1  UNL1        0.0636
     12 H         143.5009  140.2211  155.5642 H       1  UNL1        0.1424
     13 H         142.5860  140.2588  157.0027 H       1  UNL1        0.1424
     14 C         143.5372  133.7846  156.7666 C.ar    1  UNL1        0.0000
     15 C         142.6011  132.9011  155.9966 C.ar    1  UNL1        0.0000
     16 C         142.7152  131.4096  156.1083 C.ar    1  UNL1        0.0000
     17 C         143.7654  130.8016  156.9899 C.ar    1  UNL1        0.0000
     18 C         144.7016  131.6852  157.7599 C.ar    1  UNL1        0.0000
     19 C         144.5875  133.1766  157.6483 C.ar    1  UNL1        0.0000
     20 C         139.5488  139.1488  159.6160 C.ar    1  UNL1        0.0537
     21 C         139.4582  140.6429  159.5194 C.ar    1  UNL1        0.0042
     22 C         138.7042  141.4174  160.5594 C.ar    1  UNL1       -0.0025
     23 C         138.0408  140.6977  161.6960 C.ar    1  UNL1       -0.0026
     24 C         138.1314  139.2036  161.7926 C.ar    1  UNL1       -0.0025
     25 C         138.8855  138.4291  160.7526 C.ar    1  UNL1        0.0042
     26 C         137.2868  141.4721  162.7361 C.3     1  UNL1        0.1163
     27 N         138.0326  142.2316  163.7929 N.am    1  UNL1       -0.3004
     28 C         138.2278  143.7125  163.6555 C.2     1  UNL1        0.2230
     29 O         137.6772  144.4338  162.4611 O.2     1  UNL1       -0.2751
     30 H         138.3939  141.7581  164.5768 H       1  UNL1        0.1497
     31 C         138.9736  144.4719  164.7123 C.3     1  UNL1        0.0898
     32 C         140.1446  143.8399  165.4046 C.3     1  UNL1        0.0375
     33 C         141.4824  143.7970  164.7276 C.ar    1  UNL1       -0.0025
     34 C         141.9567  144.9745  163.9285 C.ar    1  UNL1       -0.0011
     35 C         143.2946  144.9316  163.2515 C.ar    1  UNL1        0.0204
     36 C         144.1581  143.7112  163.3737 C.ar    1  UNL1        0.0989
     37 N         143.6839  142.5337  164.1728 N.ar    1  UNL1       -0.2426
     38 C         142.3460  142.5766  164.8498 C.ar    1  UNL1        0.0946
@<TRIPOS>BOND
     1     5     6    1
     2     6     7   ar
     3     7     8   ar
     4     8     9   ar
     5     9    14    1
     6    14    15   ar
     7    15    16   ar
     8    16    17   ar
     9    17    18   ar
    10    18    19   ar
    11     9    10   ar
    12    10    11   ar
    13    11     1    1
    14     1     2   am
    15     2     3    2
    16     2    20    1
    17    20    21   ar
    18    21    22   ar
    19    22    23   ar
    20    23    26    1
    21    26    27    1
    22    27    28   am
    23    28    29    2
    24    28    31    1
    25    31    32    1
    26    32    33    1
    27    33    34   ar
    28    34    35   ar
    29    35    36   ar
    30    36    37   ar
    31    37    38   ar
    32    23    24   ar
    33    24    25   ar
    34    11     6   ar
    35    25    20   ar
    36    19    14   ar
    37    38    33   ar
    38     5    12    1
    39     5    13    1
    40     1     4    1
    41    27    30    1
@<TRIPOS>MOLECULE
*****
 38 41 0 0 0
SMALL
GASTEIGER

@<TRIPOS>ATOM
      1 N         141.8235  138.3306  158.6936 N.am    1  UNL1       -0.2794
      2 C         140.3259  138.4117  158.6715 C.2     1  UNL1        0.2495
      3 O         139.5537  137.7272  157.5829 O.2     1  UNL1       -0.2698
      4 H         142.3303  138.7798  159.4081 H       1  UNL1        0.1552
      5 N         143.0447  139.7844  156.3709 N.pl3   1  UNL1       -0.3560
      6 C         143.1596  138.2918  156.4657 C.ar    1  UNL1        0.0552
      7 C         143.8850  137.5262  155.3992 C.ar    1  UNL1        0.0153
      8 C         143.9998  136.0336  155.4940 C.ar    1  UNL1        0.0013
      9 C         143.3892  135.3067  156.6553 C.ar    1  UNL1        0.0013
     10 C         142.6638  136.0723  157.7218 C.ar    1  UNL1        0.0159
     11 C         142.5490  137.5649  157.6270 C.ar    1  UNL1        0.0636
     12 H         143.4455  140.2615  155.6087 H       1  UNL1        0.1424
     13 H         142.5686  140.2870  157.0709 H       1  UNL1        0.1424
     14 C         143.5040  133.8141  156.7501 C.ar    1  UNL1        0.0000
     15 C         142.5530  132.9388  155.9889 C.ar    1  UNL1        0.0000
     16 C         142.6678  131.4462  156.0837 C.ar    1  UNL1        0.0000
     17 C         143.7337  130.8289  156.9397 C.ar    1  UNL1        0.0000
     18 C         144.6847  131.7041  157.7009 C.ar    1  UNL1        0.0000
     19 C         144.5698  133.1967  157.6061 C.ar    1  UNL1        0.0000
     20 C         139.6004  139.1773  159.7381 C.ar    1  UNL1        0.0537
     21 C         139.1245  138.4736  160.9744 C.ar    1  UNL1        0.0042
     22 C         138.3991  139.2392  162.0409 C.ar    1  UNL1       -0.0025
     23 C         138.1496  140.7085  161.8713 C.ar    1  UNL1       -0.0026
     24 C         138.6255  141.4122  160.6351 C.ar    1  UNL1       -0.0025
     25 C         139.3510  140.6466  159.5685 C.ar    1  UNL1        0.0042
     26 C         137.4241  141.4741  162.9379 C.3     1  UNL1        0.1163
     27 N         138.1396  141.8693  164.1956 N.am    1  UNL1       -0.3004
     28 C         138.8729  143.1762  164.2623 C.2     1  UNL1        0.2230
     29 O         138.8906  144.0878  163.0713 O.2     1  UNL1       -0.2751
     30 H         138.1280  141.2710  164.9773 H       1  UNL1        0.1497
     31 C         139.5884  143.5714  165.5200 C.3     1  UNL1        0.0898
     32 C         140.5653  142.6271  166.1555 C.3     1  UNL1        0.0375
     33 C         140.2165  141.9416  167.4433 C.ar    1  UNL1       -0.0025
     34 C         140.3744  142.6679  168.7462 C.ar    1  UNL1       -0.0011
     35 C         140.0256  141.9825  170.0340 C.ar    1  UNL1        0.0204
     36 C         139.5191  140.5707  170.0190 C.ar    1  UNL1        0.0989
     37 N         139.3612  139.8443  168.7161 N.ar    1  UNL1       -0.2426
     38 C         139.7100  140.5298  167.4283 C.ar    1  UNL1        0.0946
@<TRIPOS>BOND
     1     5     6    1
     2     6     7   ar
     3     7     8   ar
     4     8     9   ar
     5     9    14    1
     6    14    15   ar
     7    15    16   ar
     8    16    17   ar
     9    17    18   ar
    10    18    19   ar
    11     9    10   ar
    12    10    11   ar
    13    11     1    1
    14     1     2   am
    15     2     3    2
    16     2    20    1
    17    20    21   ar
    18    21    22   ar
    19    22    23   ar
    20    23    26    1
    21    26    27    1
    22    27    28   am
    23    28    29    2
    24    28    31    1
    25    31    32    1
    26    32    33    1
    27    33    34   ar
    28    34    35   ar
    29    35    36   ar
    30    36    37   ar
    31    37    38   ar
    32    23    24   ar
    33    24    25   ar
    34    11     6   ar
    35    25    20   ar
    36    19    14   ar
    37    38    33   ar
    38     5    12    1
    39     5    13    1
    40     1     4    1
    41    27    30    1
@<TRIPOS>MOLECULE
*****
 38 41 0 0 0
SMALL
GASTEIGER

@<TRIPOS>ATOM
      1 N         140.6396  139.8869  163.4878 N.am    1  UNL1       -0.2794
      2 C         141.2424  138.6566  162.8773 C.2     1  UNL1        0.2495
      3 O         141.4211  137.4187  163.7054 O.2     1  UNL1       -0.2698
      4 H         140.5224  140.6993  162.9443 H       1  UNL1        0.1552
      5 N         138.2835  138.2414  164.3486 N.pl3   1  UNL1       -0.3560
      6 C         139.0374  139.0567  165.3570 C.ar    1  UNL1        0.0552
      7 C         138.6133  139.0492  166.7957 C.ar    1  UNL1        0.0153
      8 C         139.3672  139.8645  167.8041 C.ar    1  UNL1        0.0013
      9 C         140.5453  140.6873  167.3738 C.ar    1  UNL1        0.0013
     10 C         140.9694  140.6947  165.9350 C.ar    1  UNL1        0.0159
     11 C         140.2155  139.8794  164.9267 C.ar    1  UNL1        0.0636
     12 H         137.5103  137.7014  164.6311 H       1  UNL1        0.1424
     13 H         138.5619  138.2462  163.4043 H       1  UNL1        0.1424
     14 C         141.2992  141.5026  168.3822 C.ar    1  UNL1        0.0000
     15 C         142.7194  141.1551  168.7169 C.ar    1  UNL1        0.0000
     16 C         143.4734  141.9704  169.7253 C.ar    1  UNL1        0.0000
     17 C         142.8071  143.1332  170.3990 C.ar    1  UNL1        0.0000
     18 C         141.3868  143.4807  170.0642 C.ar    1  UNL1        0.0000
     19 C         140.6329  142.6654  169.0558 C.ar    1  UNL1        0.0000
     20 C         141.6666  138.6640  161.4384 C.ar    1  UNL1        0.0537
     21 C         143.1189  138.7911  161.0854 C.ar    1  UNL1        0.0042
     22 C         143.5431  138.7985  159.6466 C.ar    1  UNL1       -0.0025
     23 C         142.5150  138.6790  158.5610 C.ar    1  UNL1       -0.0026
     24 C         141.0627  138.5519  158.9141 C.ar    1  UNL1       -0.0025
     25 C         140.6385  138.5445  160.3528 C.ar    1  UNL1        0.0042
     26 C         142.9392  138.6864  157.1222 C.3     1  UNL1        0.1163
     27 N         143.5399  137.4553  156.5110 N.am    1  UNL1       -0.3004
     28 C         142.6501  136.3634  155.9954 C.2     1  UNL1        0.2230
     29 O         141.1597  136.5025  156.0909 O.2     1  UNL1       -0.2751
     30 H         144.5181  137.3640  156.4483 H       1  UNL1        0.1497
     31 C         143.2508  135.1323  155.3842 C.3     1  UNL1        0.0898
     32 C         142.5949  133.7985  155.5855 C.3     1  UNL1        0.0375
     33 C         143.2740  132.7455  156.4102 C.ar    1  UNL1       -0.0025
     34 C         142.7396  131.3441  156.4252 C.ar    1  UNL1       -0.0011
     35 C         143.4187  130.2911  157.2498 C.ar    1  UNL1        0.0204
     36 C         144.6323  130.6397  158.0595 C.ar    1  UNL1        0.0989
     37 N         145.1669  132.0412  158.0446 N.ar    1  UNL1       -0.2426
     38 C         144.4877  133.0941  157.2199 C.ar    1  UNL1        0.0946
@<TRIPOS>BOND
     1     5     6    1
     2     6     7   ar
     3     7     8   ar
     4     8     9   ar
     5     9    14    1
     6    14    15   ar
     7    15    16   ar
     8    16    17   ar
     9    17    18   ar
    10    18    19   ar
    11     9    10   ar
    12    10    11   ar
    13    11     1    1
    14     1     2   am
    15     2     3    2
    16     2    20    1
    17    20    21   ar
    18    21    22   ar
    19    22    23   ar
    20    23    26    1
    21    26    27    1
    22    27    28   am
    23    28    29    2
    24    28    31    1
    25    31    32    1
    26    32    33    1
    27    33    34   ar
    28    34    35   ar
    29    35    36   ar
    30    36    37   ar
    31    37    38   ar
    32    23    24   ar
    33    24    25   ar
    34    11     6   ar
    35    25    20   ar
    36    19    14   ar
    37    38    33   ar
    38     5    12    1
    39     5    13    1
    40     1     4    1
    41    27    30    1
@<TRIPOS>MOLECULE
*****
 38 41 0 0 0
SMALL
GASTEIGER

@<TRIPOS>ATOM
      1 N         142.4638  137.5478  158.2436 N.am    1  UNL1       -0.2794
      2 C         143.2811  138.8052  158.2132 C.2     1  UNL1        0.2495
      3 O         143.8699  139.2860  156.9201 O.2     1  UNL1       -0.2698
      4 H         142.0774  137.2323  159.0924 H       1  UNL1        0.1552
      5 N         140.7394  138.6905  156.0709 N.pl3   1  UNL1       -0.3560
      6 C         141.3732  137.3424  155.8945 C.ar    1  UNL1        0.0552
      7 C         141.1447  136.5657  154.6318 C.ar    1  UNL1        0.0153
      8 C         141.7784  135.2176  154.4555 C.ar    1  UNL1        0.0013
      9 C         142.6406  134.6463  155.5418 C.ar    1  UNL1        0.0013
     10 C         142.8691  135.4230  156.8045 C.ar    1  UNL1        0.0159
     11 C         142.2353  136.7711  156.9808 C.ar    1  UNL1        0.0636
     12 H         140.1735  139.0654  155.3578 H       1  UNL1        0.1424
     13 H         140.8894  139.2003  156.8996 H       1  UNL1        0.1424
     14 C         143.2743  133.2982  155.3655 C.ar    1  UNL1        0.0000
     15 C         144.2581  132.7935  156.3791 C.ar    1  UNL1        0.0000
     16 C         144.8918  131.4454  156.2028 C.ar    1  UNL1        0.0000
     17 C         144.5418  130.6021  155.0128 C.ar    1  UNL1        0.0000
     18 C         143.5581  131.1067  153.9991 C.ar    1  UNL1        0.0000
     19 C         142.9243  132.4548  154.1755 C.ar    1  UNL1        0.0000
     20 C         143.5096  139.5820  159.4760 C.ar    1  UNL1        0.0537
     21 C         143.9640  138.8759  160.7190 C.ar    1  UNL1        0.0042
     22 C         144.1925  139.6526  161.9817 C.ar    1  UNL1       -0.0025
     23 C         143.9666  141.1353  162.0014 C.ar    1  UNL1       -0.0026
     24 C         143.5122  141.8414  160.7584 C.ar    1  UNL1       -0.0025
     25 C         143.2837  141.0647  159.4957 C.ar    1  UNL1        0.0042
     26 C         144.1951  141.9121  163.2642 C.3     1  UNL1        0.1163
     27 N         143.1535  142.8756  163.7509 N.am    1  UNL1       -0.3004
     28 C         143.2183  144.3182  163.3451 C.2     1  UNL1        0.2230
     29 O         144.3245  144.7972  162.4526 O.2     1  UNL1       -0.2751
     30 H         142.4275  142.5611  164.3367 H       1  UNL1        0.1497
     31 C         142.1767  145.2817  163.8318 C.3     1  UNL1        0.0898
     32 C         141.0365  145.6685  162.9373 C.3     1  UNL1        0.0375
     33 C         139.9304  144.6919  162.6673 C.ar    1  UNL1       -0.0025
     34 C         138.9908  144.2996  163.7687 C.ar    1  UNL1       -0.0011
     35 C         137.8847  143.3230  163.4987 C.ar    1  UNL1        0.0204
     36 C         137.7182  142.7388  162.1273 C.ar    1  UNL1        0.0989
     37 N         138.6579  143.1311  161.0258 N.ar    1  UNL1       -0.2426
     38 C         139.7639  144.1076  161.2958 C.ar    1  UNL1        0.0946
@<TRIPOS>BOND
     1     5     6    1
     2     6     7   ar
     3     7     8   ar
     4     8     9   ar
     5     9    14    1
     6    14    15   ar
     7    15    16   ar
     8    16    17   ar
     9    17    18   ar
    10    18    19   ar
    11     9    10   ar
    12    10    11   ar
    13    11     1    1
    14     1     2   am
    15     2     3    2
    16     2    20    1
    17    20    21   ar
    18    21    22   ar
    19    22    23   ar
    20    23    26    1
    21    26    27    1
    22    27    28   am
    23    28    29    2
    24    28    31    1
    25    31    32    1
    26    32    33    1
    27    33    34   ar
    28    34    35   ar
    29    35    36   ar
    30    36    37   ar
    31    37    38   ar
    32    23    24   ar
    33    24    25   ar
    34    11     6   ar
    35    25    20   ar
    36    19    14   ar
    37    38    33   ar
    38     5    12    1
    39     5    13    1
    40     1     4    1
    41    27    30    1
@<TRIPOS>MOLECULE
*****
 38 41 0 0 0
SMALL
GASTEIGER

@<TRIPOS>ATOM
      1 N         140.6283  144.4030  159.4386 N.am    1  UNL1       -0.2794
      2 C         142.1015  144.1605  159.5821 C.2     1  UNL1        0.2495
      3 O         142.9838  144.1638  158.3690 O.2     1  UNL1       -0.2698
      4 H         140.0492  144.4009  160.2348 H       1  UNL1        0.1552
      5 N         139.5603  142.1076  157.8292 N.pl3   1  UNL1       -0.3560
      6 C         139.5032  143.5012  157.2774 C.ar    1  UNL1        0.0552
      7 C         138.9122  143.7471  155.9209 C.ar    1  UNL1        0.0153
      8 C         138.8552  145.1408  155.3690 C.ar    1  UNL1        0.0013
      9 C         139.3891  146.2885  156.1737 C.ar    1  UNL1        0.0013
     10 C         139.9802  146.0426  157.5302 C.ar    1  UNL1        0.0159
     11 C         140.0372  144.6489  158.0820 C.ar    1  UNL1        0.0636
     12 H         139.2098  141.3543  157.3010 H       1  UNL1        0.1424
     13 H         139.9482  141.9462  158.7195 H       1  UNL1        0.1424
     14 C         139.3321  147.6822  155.6219 C.ar    1  UNL1        0.0000
     15 C         138.6164  148.7604  156.3803 C.ar    1  UNL1        0.0000
     16 C         138.5594  150.1540  155.8285 C.ar    1  UNL1        0.0000
     17 C         139.2180  150.4694  154.5183 C.ar    1  UNL1        0.0000
     18 C         139.9336  149.3912  153.7599 C.ar    1  UNL1        0.0000
     19 C         139.9907  147.9976  154.3117 C.ar    1  UNL1        0.0000
     20 C         142.6926  143.9146  160.9387 C.ar    1  UNL1        0.0537
     21 C         143.9387  143.0908  161.0757 C.ar    1  UNL1        0.0042
     22 C         144.5297  142.8449  162.4322 C.ar    1  UNL1       -0.0025
     23 C         143.8748  143.4228  163.6516 C.ar    1  UNL1       -0.0026
     24 C         142.6287  144.2465  163.5146 C.ar    1  UNL1       -0.0025
     25 C         142.0376  144.4924  162.1581 C.ar    1  UNL1        0.0042
     26 C         144.4658  143.1769  165.0082 C.3     1  UNL1        0.1163
     27 N         143.5895  142.7193  166.1364 N.am    1  UNL1       -0.3004
     28 C         143.1449  141.2885  166.2078 C.2     1  UNL1        0.2230
     29 O         143.5765  140.3154  165.1511 O.2     1  UNL1       -0.2751
     30 H         143.3063  143.3580  166.8299 H       1  UNL1        0.1497
     31 C         142.2686  140.8309  167.3360 C.3     1  UNL1        0.0898
     32 C         140.9795  141.5430  167.6208 C.3     1  UNL1        0.0375
     33 C         140.0294  141.8505  166.5015 C.ar    1  UNL1       -0.0025
     34 C         139.9266  143.2485  165.9677 C.ar    1  UNL1       -0.0011
     35 C         138.9765  143.5561  164.8485 C.ar    1  UNL1        0.0204
     36 C         138.1292  142.4656  164.2630 C.ar    1  UNL1        0.0989
     37 N         138.2319  141.0675  164.7968 N.ar    1  UNL1       -0.2426
     38 C         139.1820  140.7600  165.9161 C.ar    1  UNL1        0.0946
@<TRIPOS>BOND
     1     5     6    1
     2     6     7   ar
     3     7     8   ar
     4     8     9   ar
     5     9    14    1
     6    14    15   ar
     7    15    16   ar
     8    16    17   ar
     9    17    18   ar
    10    18    19   ar
    11     9    10   ar
    12    10    11   ar
    13    11     1    1
    14     1     2   am
    15     2     3    2
    16     2    20    1
    17    20    21   ar
    18    21    22   ar
    19    22    23   ar
    20    23    26    1
    21    26    27    1
    22    27    28   am
    23    28    29    2
    24    28    31    1
    25    31    32    1
    26    32    33    1
    27    33    34   ar
    28    34    35   ar
    29    35    36   ar
    30    36    37   ar
    31    37    38   ar
    32    23    24   ar
    33    24    25   ar
    34    11     6   ar
    35    25    20   ar
    36    19    14   ar
    37    38    33   ar
    38     5    12    1
    39     5    13    1
    40     1     4    1
    41    27    30    1
