@<TRIPOS>MOLECULE
*****
 30 34 0 0 0
SMALL
GASTEIGER

@<TRIPOS>ATOM
      1 C         141.3409  139.0863  164.9883 C.ar    1  UNL1        0.0681
      2 C         141.9785  139.8171  163.8440 C.ar    1  UNL1        0.0208
      3 C         141.7404  139.3591  162.4357 C.ar    1  UNL1        0.0384
      4 C         140.8646  138.1703  162.1716 C.ar    1  UNL1        0.1385
      5 C         140.2270  137.4396  163.3159 C.ar    1  UNL1        0.0384
      6 C         140.4651  137.8976  164.7242 C.ar    1  UNL1        0.0208
      7 C         143.7243  138.0831  166.5091 C.3     1  UNL1        0.0723
      8 C         142.7708  139.0428  167.1571 C.ar    1  UNL1        0.1268
      9 N         143.0090  139.5008  168.5654 N.ar    1  UNL1       -0.2318
     10 C         142.0554  140.4605  169.2134 C.ar    1  UNL1        0.0873
     11 C         142.2936  140.9185  170.6218 C.ar    1  UNL1        0.0216
     12 C         141.3401  141.8781  171.2697 C.ar    1  UNL1        0.0312
     13 C         140.1483  142.3797  170.5093 C.ar    1  UNL1        0.1404
     14 F         139.1948  143.3394  171.1573 F       1  UNL1       -0.2042
     15 C         139.9101  141.9217  169.1010 C.ar    1  UNL1        0.0359
     16 C         140.8637  140.9621  168.4531 C.ar    1  UNL1        0.0764
     17 C         140.6255  140.5040  167.0446 C.ar    1  UNL1        0.2670
     18 O         139.4338  141.0056  166.2843 O.2     1  UNL1       -0.2665
     19 N         141.5790  139.5444  166.3967 N.ar    1  UNL1       -0.2626
     20 O         140.6265  137.7123  160.7632 O.3     1  UNL1       -0.4791
     21 C         139.8095  138.5544  159.8287 C.3     1  UNL1        0.1687
     22 C         140.1118  138.5531  158.3594 C.3     1  UNL1        0.0609
     23 C         139.2949  139.3953  157.4249 C.3     1  UNL1        0.0758
     24 N         138.1756  140.2387  157.9596 N.3     1  UNL1       -0.2737
     25 C         137.8734  140.2400  159.4288 C.3     1  UNL1        0.0758
     26 C         138.6903  139.3979  160.3633 C.3     1  UNL1        0.0609
     27 C         137.3587  141.0809  157.0251 C.3     1  UNL1        0.0575
     28 C         136.2609  140.8111  156.0390 C.3     1  UNL1        0.0160
     29 C         136.2033  142.2719  155.7035 C.3     1  UNL1        0.0028
     30 C         137.3010  142.5417  156.6894 C.3     1  UNL1        0.0160
@<TRIPOS>BOND
     1     7     8    1
     2     8     9   ar
     3     9    10   ar
     4    10    11   ar
     5    11    12   ar
     6    12    13   ar
     7    13    14    1
     8    13    15   ar
     9    15    16   ar
    10    16    17   ar
    11    17    18    2
    12    17    19   ar
    13    19     1    1
    14     1     2   ar
    15     2     3   ar
    16     3     4   ar
    17     4    20    1
    18    20    21    1
    19    21    22    1
    20    22    23    1
    21    23    24    1
    22    24    27    1
    23    27    28    1
    24    28    29    1
    25    29    30    1
    26    24    25    1
    27    25    26    1
    28     4     5   ar
    29     5     6   ar
    30    19     8   ar
    31     6     1   ar
    32    16    10   ar
    33    26    21    1
    34    30    27    1
@<TRIPOS>MOLECULE
*****
 30 34 0 0 0
SMALL
GASTEIGER

@<TRIPOS>ATOM
      1 C         139.0523  140.6228  164.8899 C.ar    1  UNL1        0.0681
      2 C         137.8821  141.4265  164.4054 C.ar    1  UNL1        0.0208
      3 C         137.5110  141.4100  162.9522 C.ar    1  UNL1        0.0384
      4 C         138.3102  140.5897  161.9834 C.ar    1  UNL1        0.1385
      5 C         139.4803  139.7860  162.4679 C.ar    1  UNL1        0.0384
      6 C         139.8514  139.8026  163.9212 C.ar    1  UNL1        0.0208
      7 C         137.8364  138.6274  166.7713 C.3     1  UNL1        0.0723
      8 C         138.8154  139.6417  167.2840 C.ar    1  UNL1        0.1268
      9 N         139.1864  139.6583  168.7372 N.ar    1  UNL1       -0.2318
     10 C         140.1654  140.6726  169.2499 C.ar    1  UNL1        0.0873
     11 C         140.5364  140.6892  170.7032 C.ar    1  UNL1        0.0216
     12 C         141.5154  141.7035  171.2157 C.ar    1  UNL1        0.0312
     13 C         142.1233  142.7012  170.2750 C.ar    1  UNL1        0.1404
     14 F         143.1024  143.7155  170.7877 F       1  UNL1       -0.2042
     15 C         141.7523  142.6846  168.8218 C.ar    1  UNL1        0.0359
     16 C         140.7734  141.6703  168.3092 C.ar    1  UNL1        0.0764
     17 C         140.4023  141.6537  166.8559 C.ar    1  UNL1        0.2670
     18 O         141.0103  142.6515  165.9152 O.2     1  UNL1       -0.2665
     19 N         139.4234  140.6394  166.3433 N.ar    1  UNL1       -0.2626
     20 O         137.9391  140.5731  160.5301 O.3     1  UNL1       -0.4791
     21 C         138.4534  141.6425  159.6125 C.3     1  UNL1        0.1687
     22 C         139.3494  142.7210  160.1455 C.3     1  UNL1        0.0609
     23 C         139.8637  143.7903  159.2280 C.3     1  UNL1        0.0758
     24 N         139.4819  143.7812  157.7773 N.3     1  UNL1       -0.2737
     25 C         138.5859  142.7028  157.2444 C.3     1  UNL1        0.0758
     26 C         138.0716  141.6334  158.1620 C.3     1  UNL1        0.0609
     27 C         139.9962  144.8506  156.8597 C.3     1  UNL1        0.0575
     28 C         140.0296  146.3499  156.8919 C.3     1  UNL1        0.0160
     29 C         140.7235  146.3629  155.5621 C.3     1  UNL1        0.0028
     30 C         140.6900  144.8637  155.5300 C.3     1  UNL1        0.0160
@<TRIPOS>BOND
     1     7     8    1
     2     8     9   ar
     3     9    10   ar
     4    10    11   ar
     5    11    12   ar
     6    12    13   ar
     7    13    14    1
     8    13    15   ar
     9    15    16   ar
    10    16    17   ar
    11    17    18    2
    12    17    19   ar
    13    19     1    1
    14     1     2   ar
    15     2     3   ar
    16     3     4   ar
    17     4    20    1
    18    20    21    1
    19    21    22    1
    20    22    23    1
    21    23    24    1
    22    24    27    1
    23    27    28    1
    24    28    29    1
    25    29    30    1
    26    24    25    1
    27    25    26    1
    28     4     5   ar
    29     5     6   ar
    30    19     8   ar
    31     6     1   ar
    32    16    10   ar
    33    26    21    1
    34    30    27    1
@<TRIPOS>MOLECULE
*****
 30 34 0 0 0
SMALL
GASTEIGER

@<TRIPOS>ATOM
      1 C         141.6789  138.7463  161.6597 C.ar    1  UNL1        0.0681
      2 C         140.9348  139.2215  160.4471 C.ar    1  UNL1        0.0208
      3 C         141.3984  138.8213  159.0779 C.ar    1  UNL1        0.0384
      4 C         142.6063  137.9458  158.9213 C.ar    1  UNL1        0.1385
      5 C         143.3504  137.4705  160.1339 C.ar    1  UNL1        0.0384
      6 C         142.8868  137.8708  161.5031 C.ar    1  UNL1        0.0208
      7 C         143.1032  140.9275  163.1477 C.3     1  UNL1        0.0723
      8 C         141.9273  140.2372  163.7730 C.ar    1  UNL1        0.1268
      9 N         141.4636  140.6375  165.1421 N.ar    1  UNL1       -0.2318
     10 C         140.2878  139.9472  165.7674 C.ar    1  UNL1        0.0873
     11 C         139.8241  140.3475  167.1366 C.ar    1  UNL1        0.0216
     12 C         138.6483  139.6572  167.7618 C.ar    1  UNL1        0.0312
     13 C         137.9362  138.5666  167.0179 C.ar    1  UNL1        0.1404
     14 F         136.7603  137.8763  167.6432 F       1  UNL1       -0.2042
     15 C         138.3999  138.1663  165.6487 C.ar    1  UNL1        0.0359
     16 C         139.5757  138.8566  165.0235 C.ar    1  UNL1        0.0764
     17 C         140.0394  138.4563  163.6542 C.ar    1  UNL1        0.2670
     18 O         139.3273  137.3657  162.9102 O.2     1  UNL1       -0.2665
     19 N         141.2152  139.1466  163.0290 N.ar    1  UNL1       -0.2626
     20 O         143.0700  137.5455  157.5521 O.3     1  UNL1       -0.4791
     21 C         142.7401  136.1836  157.0168 C.3     1  UNL1        0.1687
     22 C         143.4436  134.9744  157.5581 C.3     1  UNL1        0.0609
     23 C         143.1137  133.6125  157.0229 C.3     1  UNL1        0.0758
     24 N         142.0802  133.4599  155.9464 N.3     1  UNL1       -0.2737
     25 C         141.3767  134.6691  155.4052 C.3     1  UNL1        0.0758
     26 C         141.7067  136.0310  155.9404 C.3     1  UNL1        0.0609
     27 C         141.7502  132.0981  155.4112 C.3     1  UNL1        0.0575
     28 C         140.6014  131.5079  154.6482 C.3     1  UNL1        0.0160
     29 C         141.2836  130.1721  154.6542 C.3     1  UNL1        0.0028
     30 C         142.4324  130.7622  155.4171 C.3     1  UNL1        0.0160
@<TRIPOS>BOND
     1     7     8    1
     2     8     9   ar
     3     9    10   ar
     4    10    11   ar
     5    11    12   ar
     6    12    13   ar
     7    13    14    1
     8    13    15   ar
     9    15    16   ar
    10    16    17   ar
    11    17    18    2
    12    17    19   ar
    13    19     1    1
    14     1     2   ar
    15     2     3   ar
    16     3     4   ar
    17     4    20    1
    18    20    21    1
    19    21    22    1
    20    22    23    1
    21    23    24    1
    22    24    27    1
    23    27    28    1
    24    28    29    1
    25    29    30    1
    26    24    25    1
    27    25    26    1
    28     4     5   ar
    29     5     6   ar
    30    19     8   ar
    31     6     1   ar
    32    16    10   ar
    33    26    21    1
    34    30    27    1
@<TRIPOS>MOLECULE
*****
 30 34 0 0 0
SMALL
GASTEIGER

@<TRIPOS>ATOM
      1 C         139.8312  139.3548  164.7315 C.ar    1  UNL1        0.0681
      2 C         139.2790  140.3613  163.7661 C.ar    1  UNL1        0.0208
      3 C         139.0298  139.9734  162.3387 C.ar    1  UNL1        0.0384
      4 C         139.3329  138.5789  161.8767 C.ar    1  UNL1        0.1385
      5 C         139.8850  137.5723  162.8421 C.ar    1  UNL1        0.0384
      6 C         140.1342  137.9602  164.2694 C.ar    1  UNL1        0.0208
      7 C         137.7896  138.7211  166.8363 C.3     1  UNL1        0.0723
      8 C         139.0595  139.4259  167.2113 C.ar    1  UNL1        0.1268
      9 N         139.3086  139.8139  168.6387 N.ar    1  UNL1       -0.2318
     10 C         140.5786  140.5187  169.0137 C.ar    1  UNL1        0.0873
     11 C         140.8277  140.9066  170.4410 C.ar    1  UNL1        0.0216
     12 C         142.0976  141.6114  170.8160 C.ar    1  UNL1        0.0312
     13 C         143.1184  141.9282  169.7635 C.ar    1  UNL1        0.1404
     14 F         144.3883  142.6330  170.1385 F       1  UNL1       -0.2042
     15 C         142.8693  141.5402  168.3362 C.ar    1  UNL1        0.0359
     16 C         141.5994  140.8355  167.9612 C.ar    1  UNL1        0.0764
     17 C         141.3502  140.4475  166.5338 C.ar    1  UNL1        0.2670
     18 O         142.3710  140.7643  165.4814 O.2     1  UNL1       -0.2665
     19 N         140.0803  139.7427  166.1589 N.ar    1  UNL1       -0.2626
     20 O         139.0837  138.1909  160.4493 O.3     1  UNL1       -0.4791
     21 C         140.1749  138.3382  159.4307 C.3     1  UNL1        0.1687
     22 C         141.5834  138.6030  159.8734 C.3     1  UNL1        0.0609
     23 C         142.6746  138.7504  158.8548 C.3     1  UNL1        0.0758
     24 N         142.3572  138.6329  157.3934 N.3     1  UNL1       -0.2737
     25 C         140.9488  138.3681  156.9507 C.3     1  UNL1        0.0758
     26 C         139.8576  138.2208  157.9694 C.3     1  UNL1        0.0609
     27 C         143.4484  138.7802  156.3748 C.3     1  UNL1        0.0575
     28 C         144.0543  137.8873  155.3327 C.3     1  UNL1        0.0160
     29 C         144.9916  138.9886  154.9342 C.3     1  UNL1        0.0028
     30 C         144.3857  139.8814  155.9761 C.3     1  UNL1        0.0160
@<TRIPOS>BOND
     1     7     8    1
     2     8     9   ar
     3     9    10   ar
     4    10    11   ar
     5    11    12   ar
     6    12    13   ar
     7    13    14    1
     8    13    15   ar
     9    15    16   ar
    10    16    17   ar
    11    17    18    2
    12    17    19   ar
    13    19     1    1
    14     1     2   ar
    15     2     3   ar
    16     3     4   ar
    17     4    20    1
    18    20    21    1
    19    21    22    1
    20    22    23    1
    21    23    24    1
    22    24    27    1
    23    27    28    1
    24    28    29    1
    25    29    30    1
    26    24    25    1
    27    25    26    1
    28     4     5   ar
    29     5     6   ar
    30    19     8   ar
    31     6     1   ar
    32    16    10   ar
    33    26    21    1
    34    30    27    1
@<TRIPOS>MOLECULE
*****
 30 34 0 0 0
SMALL
GASTEIGER

@<TRIPOS>ATOM
      1 C         141.5588  139.6606  162.9234 C.ar    1  UNL1        0.0681
      2 C         141.9279  140.8861  162.1412 C.ar    1  UNL1        0.0208
      3 C         141.7818  140.8952  160.6483 C.ar    1  UNL1        0.0384
      4 C         141.2665  139.6789  159.9378 C.ar    1  UNL1        0.1385
      5 C         140.8974  138.4534  160.7200 C.ar    1  UNL1        0.0384
      6 C         141.0435  138.4443  162.2129 C.ar    1  UNL1        0.0208
      7 C         144.2430  139.1565  164.1648 C.3     1  UNL1        0.0723
      8 C         143.0470  139.3995  165.0370 C.ar    1  UNL1        0.1268
      9 N         143.1931  139.3904  166.5298 N.ar    1  UNL1       -0.2318
     10 C         141.9972  139.6334  167.4020 C.ar    1  UNL1        0.0873
     11 C         142.1433  139.6243  168.8948 C.ar    1  UNL1        0.0216
     12 C         140.9474  139.8672  169.7669 C.ar    1  UNL1        0.0312
     13 C         139.6053  140.1193  169.1463 C.ar    1  UNL1        0.1404
     14 F         138.4093  140.3623  170.0185 F       1  UNL1       -0.2042
     15 C         139.4591  140.1284  167.6535 C.ar    1  UNL1        0.0359
     16 C         140.6551  139.8854  166.7813 C.ar    1  UNL1        0.0764
     17 C         140.5089  139.8945  165.2884 C.ar    1  UNL1        0.2670
     18 O         139.1668  140.1466  164.6678 O.2     1  UNL1       -0.2665
     19 N         141.7049  139.6515  164.4163 N.ar    1  UNL1       -0.2626
     20 O         141.1204  139.6880  158.4449 O.3     1  UNL1       -0.4791
     21 C         141.3182  138.4225  157.6643 C.3     1  UNL1        0.1687
     22 C         142.6259  137.6914  157.7397 C.3     1  UNL1        0.0609
     23 C         142.8237  136.4259  156.9591 C.3     1  UNL1        0.0758
     24 N         141.7139  135.8915  156.1030 N.3     1  UNL1       -0.2737
     25 C         140.4063  136.6226  156.0276 C.3     1  UNL1        0.0758
     26 C         140.2085  137.8881  156.8082 C.3     1  UNL1        0.0609
     27 C         141.9117  134.6260  155.3224 C.3     1  UNL1        0.0575
     28 C         141.7975  133.1619  155.6286 C.3     1  UNL1        0.0160
     29 C         142.1914  132.8363  154.2184 C.3     1  UNL1        0.0028
     30 C         142.3056  134.3002  153.9122 C.3     1  UNL1        0.0160
@<TRIPOS>BOND
     1     7     8    1
     2     8     9   ar
     3     9    10   ar
     4    10    11   ar
     5    11    12   ar
     6    12    13   ar
     7    13    14    1
     8    13    15   ar
     9    15    16   ar
    10    16    17   ar
    11    17    18    2
    12    17    19   ar
    13    19     1    1
    14     1     2   ar
    15     2     3   ar
    16     3     4   ar
    17     4    20    1
    18    20    21    1
    19    21    22    1
    20    22    23    1
    21    23    24    1
    22    24    27    1
    23    27    28    1
    24    28    29    1
    25    29    30    1
    26    24    25    1
    27    25    26    1
    28     4     5   ar
    29     5     6   ar
    30    19     8   ar
    31     6     1   ar
    32    16    10   ar
    33    26    21    1
    34    30    27    1
@<TRIPOS>MOLECULE
*****
 30 34 0 0 0
SMALL
GASTEIGER

@<TRIPOS>ATOM
      1 C         140.2238  140.5141  163.1413 C.ar    1  UNL1        0.0681
      2 C         139.1245  141.0107  162.2497 C.ar    1  UNL1        0.0208
      3 C         139.3137  141.0236  160.7618 C.ar    1  UNL1        0.0384
      4 C         140.6022  140.5398  160.1654 C.ar    1  UNL1        0.1385
      5 C         141.7015  140.0431  161.0570 C.ar    1  UNL1        0.0384
      6 C         141.5123  140.0303  162.5449 C.ar    1  UNL1        0.0208
      7 C         139.1020  138.0803  164.4898 C.3     1  UNL1        0.0723
      8 C         139.4737  139.2844  165.3035 C.ar    1  UNL1        0.1268
      9 N         139.2845  139.2716  166.7915 N.ar    1  UNL1       -0.2318
     10 C         139.6561  140.4756  167.6053 C.ar    1  UNL1        0.0873
     11 C         139.4669  140.4628  169.0932 C.ar    1  UNL1        0.0216
     12 C         139.8386  141.6668  169.9069 C.ar    1  UNL1        0.0312
     13 C         140.3995  142.8837  169.2326 C.ar    1  UNL1        0.1404
     14 F         140.7711  144.0878  170.0464 F       1  UNL1       -0.2042
     15 C         140.5887  142.8965  167.7447 C.ar    1  UNL1        0.0359
     16 C         140.2170  141.6925  166.9310 C.ar    1  UNL1        0.0764
     17 C         140.4063  141.7053  165.4430 C.ar    1  UNL1        0.2670
     18 O         140.9672  142.9222  164.7688 O.2     1  UNL1       -0.2665
     19 N         140.0346  140.5013  164.6293 N.ar    1  UNL1       -0.2626
     20 O         140.7914  140.5526  158.6774 O.3     1  UNL1       -0.4791
     21 C         141.0186  139.2667  157.9392 C.3     1  UNL1        0.1687
     22 C         139.8544  138.5177  157.3616 C.3     1  UNL1        0.0609
     23 C         140.0816  137.2319  156.6233 C.3     1  UNL1        0.0758
     24 N         141.4730  136.6950  156.4628 N.3     1  UNL1       -0.2737
     25 C         142.6372  137.4440  157.0404 C.3     1  UNL1        0.0758
     26 C         142.4100  138.7299  157.7786 C.3     1  UNL1        0.0609
     27 C         141.7003  135.4092  155.7245 C.3     1  UNL1        0.0575
     28 C         141.3457  134.8914  154.3621 C.3     1  UNL1        0.0160
     29 C         142.0216  133.5907  154.6806 C.3     1  UNL1        0.0028
     30 C         142.3761  134.1085  156.0429 C.3     1  UNL1        0.0160
@<TRIPOS>BOND
     1     7     8    1
     2     8     9   ar
     3     9    10   ar
     4    10    11   ar
     5    11    12   ar
     6    12    13   ar
     7    13    14    1
     8    13    15   ar
     9    15    16   ar
    10    16    17   ar
    11    17    18    2
    12    17    19   ar
    13    19     1    1
    14     1     2   ar
    15     2     3   ar
    16     3     4   ar
    17     4    20    1
    18    20    21    1
    19    21    22    1
    20    22    23    1
    21    23    24    1
    22    24    27    1
    23    27    28    1
    24    28    29    1
    25    29    30    1
    26    24    25    1
    27    25    26    1
    28     4     5   ar
    29     5     6   ar
    30    19     8   ar
    31     6     1   ar
    32    16    10   ar
    33    26    21    1
    34    30    27    1
@<TRIPOS>MOLECULE
*****
 30 34 0 0 0
SMALL
GASTEIGER

@<TRIPOS>ATOM
      1 C         143.4468  142.2587  160.0391 C.ar    1  UNL1        0.0681
      2 C         144.6390  142.7170  160.8256 C.ar    1  UNL1        0.0208
      3 C         145.0906  141.9381  162.0254 C.ar    1  UNL1        0.0384
      4 C         144.3500  140.7010  162.4386 C.ar    1  UNL1        0.1385
      5 C         143.1578  140.2426  161.6521 C.ar    1  UNL1        0.0384
      6 C         142.7062  141.0215  160.4523 C.ar    1  UNL1        0.0208
      7 C         144.7330  141.7830  157.3709 C.3     1  UNL1        0.0723
      8 C         143.6384  142.7998  157.5052 C.ar    1  UNL1        0.1268
      9 N         143.1869  143.5787  156.3055 N.ar    1  UNL1       -0.2318
     10 C         142.0922  144.5955  156.4398 C.ar    1  UNL1        0.0873
     11 C         141.6408  145.3744  155.2400 C.ar    1  UNL1        0.0216
     12 C         140.5462  146.3911  155.3744 C.ar    1  UNL1        0.0312
     13 C         139.9031  146.6290  156.7085 C.ar    1  UNL1        0.1404
     14 F         138.8085  147.6458  156.8428 F       1  UNL1       -0.2042
     15 C         140.3546  145.8501  157.9083 C.ar    1  UNL1        0.0359
     16 C         141.4492  144.8334  157.7739 C.ar    1  UNL1        0.0764
     17 C         141.9007  144.0544  158.9737 C.ar    1  UNL1        0.2670
     18 O         141.2577  144.2923  160.3078 O.2     1  UNL1       -0.2665
     19 N         142.9953  143.0377  158.8393 N.ar    1  UNL1       -0.2626
     20 O         144.8015  139.9220  163.6384 O.3     1  UNL1       -0.4791
     21 C         143.9830  139.9392  164.8953 C.3     1  UNL1        0.1687
     22 C         143.3105  141.2059  165.3350 C.3     1  UNL1        0.0609
     23 C         142.4920  141.2232  166.5919 C.3     1  UNL1        0.0758
     24 N         142.3460  139.9737  167.4091 N.3     1  UNL1       -0.2737
     25 C         143.0186  138.7071  166.9693 C.3     1  UNL1        0.0758
     26 C         143.8371  138.6899  165.7124 C.3     1  UNL1        0.0609
     27 C         141.5276  139.9910  168.6659 C.3     1  UNL1        0.0575
     28 C         140.1801  140.5289  169.0470 C.3     1  UNL1        0.0160
     29 C         140.3701  140.0153  170.4434 C.3     1  UNL1        0.0028
     30 C         141.7174  139.4774  170.0625 C.3     1  UNL1        0.0160
@<TRIPOS>BOND
     1     7     8    1
     2     8     9   ar
     3     9    10   ar
     4    10    11   ar
     5    11    12   ar
     6    12    13   ar
     7    13    14    1
     8    13    15   ar
     9    15    16   ar
    10    16    17   ar
    11    17    18    2
    12    17    19   ar
    13    19     1    1
    14     1     2   ar
    15     2     3   ar
    16     3     4   ar
    17     4    20    1
    18    20    21    1
    19    21    22    1
    20    22    23    1
    21    23    24    1
    22    24    27    1
    23    27    28    1
    24    28    29    1
    25    29    30    1
    26    24    25    1
    27    25    26    1
    28     4     5   ar
    29     5     6   ar
    30    19     8   ar
    31     6     1   ar
    32    16    10   ar
    33    26    21    1
    34    30    27    1
@<TRIPOS>MOLECULE
*****
 30 34 0 0 0
SMALL
GASTEIGER

@<TRIPOS>ATOM
      1 C         140.2434  138.9679  160.3207 C.ar    1  UNL1        0.0681
      2 C         139.3934  138.0920  161.1926 C.ar    1  UNL1        0.0208
      3 C         138.6752  138.6784  162.3718 C.ar    1  UNL1        0.0384
      4 C         138.8071  140.1407  162.6789 C.ar    1  UNL1        0.1385
      5 C         139.6571  141.0165  161.8070 C.ar    1  UNL1        0.0384
      6 C         140.3753  140.4302  160.6278 C.ar    1  UNL1        0.0208
      7 C         143.0105  137.8568  160.6505 C.3     1  UNL1        0.0723
      8 C         142.3451  137.8259  159.3064 C.ar    1  UNL1        0.1268
      9 N         143.0633  137.2394  158.1273 N.ar    1  UNL1       -0.2318
     10 C         142.3980  137.2086  156.7833 C.ar    1  UNL1        0.0873
     11 C         143.1161  136.6221  155.6042 C.ar    1  UNL1        0.0216
     12 C         142.4508  136.5913  154.2602 C.ar    1  UNL1        0.0312
     13 C         141.0673  137.1468  154.0953 C.ar    1  UNL1        0.1404
     14 F         140.4019  137.1160  152.7513 F       1  UNL1       -0.2042
     15 C         140.3491  137.7333  155.2744 C.ar    1  UNL1        0.0359
     16 C         141.0144  137.7641  156.6184 C.ar    1  UNL1        0.0764
     17 C         140.2963  138.3506  157.7975 C.ar    1  UNL1        0.2670
     18 O         138.9127  138.9062  157.6326 O.2     1  UNL1       -0.2665
     19 N         140.9616  138.3815  159.1415 N.ar    1  UNL1       -0.2626
     20 O         138.0889  140.7271  163.8581 O.3     1  UNL1       -0.4791
     21 C         138.8660  141.1947  165.0529 C.3     1  UNL1        0.1687
     22 C         139.1560  140.2453  166.1774 C.3     1  UNL1        0.0609
     23 C         139.9331  140.7129  167.3722 C.3     1  UNL1        0.0758
     24 N         140.4202  142.1300  167.4424 N.3     1  UNL1       -0.2737
     25 C         140.1302  143.0793  166.3179 C.3     1  UNL1        0.0758
     26 C         139.3531  142.6117  165.1231 C.3     1  UNL1        0.0609
     27 C         141.1972  142.5976  168.6372 C.3     1  UNL1        0.0575
     28 C         140.8861  143.4307  169.8452 C.3     1  UNL1        0.0160
     29 C         142.2962  143.2588  170.3269 C.3     1  UNL1        0.0028
     30 C         142.6073  142.4258  169.1190 C.3     1  UNL1        0.0160
@<TRIPOS>BOND
     1     7     8    1
     2     8     9   ar
     3     9    10   ar
     4    10    11   ar
     5    11    12   ar
     6    12    13   ar
     7    13    14    1
     8    13    15   ar
     9    15    16   ar
    10    16    17   ar
    11    17    18    2
    12    17    19   ar
    13    19     1    1
    14     1     2   ar
    15     2     3   ar
    16     3     4   ar
    17     4    20    1
    18    20    21    1
    19    21    22    1
    20    22    23    1
    21    23    24    1
    22    24    27    1
    23    27    28    1
    24    28    29    1
    25    29    30    1
    26    24    25    1
    27    25    26    1
    28     4     5   ar
    29     5     6   ar
    30    19     8   ar
    31     6     1   ar
    32    16    10   ar
    33    26    21    1
    34    30    27    1
@<TRIPOS>MOLECULE
*****
 30 34 0 0 0
SMALL
GASTEIGER

@<TRIPOS>ATOM
      1 C         142.7442  141.9091  163.7942 C.ar    1  UNL1        0.0681
      2 C         141.8762  141.4800  162.6485 C.ar    1  UNL1        0.0208
      3 C         142.1229  142.0285  161.2744 C.ar    1  UNL1        0.0384
      4 C         143.2374  143.0060  161.0459 C.ar    1  UNL1        0.1385
      5 C         144.1053  143.4350  162.1916 C.ar    1  UNL1        0.0384
      6 C         143.8587  142.8866  163.5658 C.ar    1  UNL1        0.0208
      7 C         144.1221  139.3941  164.6750 C.3     1  UNL1        0.0723
      8 C         143.1865  140.1031  165.6089 C.ar    1  UNL1        0.1268
      9 N         142.9398  139.5546  166.9830 N.ar    1  UNL1       -0.2318
     10 C         142.0042  140.2636  167.9168 C.ar    1  UNL1        0.0873
     11 C         141.7576  139.7151  169.2909 C.ar    1  UNL1        0.0216
     12 C         140.8220  140.4241  170.2246 C.ar    1  UNL1        0.0312
     13 C         140.1330  141.6816  169.7842 C.ar    1  UNL1        0.1404
     14 F         139.1973  142.3907  170.7181 F       1  UNL1       -0.2042
     15 C         140.3796  142.2302  168.4101 C.ar    1  UNL1        0.0359
     16 C         141.3152  141.5211  167.4764 C.ar    1  UNL1        0.0764
     17 C         141.5619  142.0696  166.1022 C.ar    1  UNL1        0.2670
     18 O         140.8729  143.3272  165.6618 O.2     1  UNL1       -0.2665
     19 N         142.4975  141.3606  165.1685 N.ar    1  UNL1       -0.2626
     20 O         143.4841  143.5545  159.6717 O.3     1  UNL1       -0.4791
     21 C         142.3306  143.8053  158.7462 C.3     1  UNL1        0.1687
     22 C         141.5290  145.0670  158.8716 C.3     1  UNL1        0.0609
     23 C         140.3756  145.3179  157.9460 C.3     1  UNL1        0.0758
     24 N         140.0238  144.3071  156.8950 N.3     1  UNL1       -0.2737
     25 C         140.8254  143.0455  156.7696 C.3     1  UNL1        0.0758
     26 C         141.9788  142.7946  157.6952 C.3     1  UNL1        0.0609
     27 C         138.8704  144.5579  155.9695 C.3     1  UNL1        0.0575
     28 C         138.3729  145.7395  155.1907 C.3     1  UNL1        0.0160
     29 C         137.2392  144.9127  154.6605 C.3     1  UNL1        0.0028
     30 C         137.7366  143.7312  155.4392 C.3     1  UNL1        0.0160
@<TRIPOS>BOND
     1     7     8    1
     2     8     9   ar
     3     9    10   ar
     4    10    11   ar
     5    11    12   ar
     6    12    13   ar
     7    13    14    1
     8    13    15   ar
     9    15    16   ar
    10    16    17   ar
    11    17    18    2
    12    17    19   ar
    13    19     1    1
    14     1     2   ar
    15     2     3   ar
    16     3     4   ar
    17     4    20    1
    18    20    21    1
    19    21    22    1
    20    22    23    1
    21    23    24    1
    22    24    27    1
    23    27    28    1
    24    28    29    1
    25    29    30    1
    26    24    25    1
    27    25    26    1
    28     4     5   ar
    29     5     6   ar
    30    19     8   ar
    31     6     1   ar
    32    16    10   ar
    33    26    21    1
    34    30    27    1
