@<TRIPOS>MOLECULE
*****
 33 37 0 0 0
SMALL
GASTEIGER

@<TRIPOS>ATOM
      1 C         142.9807  142.2503  166.1461 C.3     1  UNL1        0.0003
      2 C         142.1063  141.5971  167.1752 C.3     1  UNL1        0.0042
      3 C         142.4555  141.6999  168.6304 C.3     1  UNL1        0.0022
      4 C         143.6789  142.4560  169.0566 C.3     1  UNL1        0.0001
      5 C         141.5811  141.0467  169.6594 C.3     1  UNL1        0.0272
      6 C         141.6708  140.9782  171.1551 C.3     1  UNL1        0.0691
      7 N         140.5027  140.1797  171.6533 N.3     1  UNL1       -0.2970
      8 C         139.6912  139.7549  170.4655 C.3     1  UNL1        0.0793
      9 C         140.3577  140.2907  169.2332 C.3     1  UNL1        0.1089
     10 C         140.5986  140.4855  168.7751 C.2     1  UNL1        0.3173
     11 O         139.2714  139.3950  171.5054 O.2     1  UNL1       -0.2501
     12 O         140.0150  140.1264  168.5539 O.3     1  UNL1       -0.4522
     13 C         140.4241  140.4341  168.0475 C.3     1  UNL1        0.1697
     14 C         138.0425  139.0331  166.3829 C.3     1  UNL1        0.0473
     15 C         140.0086  140.1879  167.7780 C.3     1  UNL1        0.0556
     16 C         140.8829  140.8411  166.7490 C.3     1  UNL1        0.0261
     17 H         139.9322  140.7523  172.2754 H       1  UNL1        0.1233
     18 C         140.5338  140.7383  165.2938 C.2     1  UNL1       -0.0248
     19 C         141.0552  139.5936  164.4766 C.2     1  UNL1        0.0145
     20 C         140.7061  139.4907  163.0214 C.ar    1  UNL1        0.0810
     21 C         139.4561  138.7774  162.5986 C.ar    1  UNL1        0.0191
     22 C         139.1071  138.6746  161.1434 C.ar    1  UNL1        0.0031
     23 C         140.0080  139.2849  160.1111 C.ar    1  UNL1        0.0198
     24 C         141.2580  139.9982  160.5338 C.ar    1  UNL1        0.0988
     25 N         141.6070  140.1011  161.9890 N.ar    1  UNL1       -0.2438
     26 C         139.6589  139.1820  158.6558 C.ar    1  UNL1        0.0111
     27 C         139.9970  137.9376  157.8897 C.ar    1  UNL1        0.0007
     28 C         139.6480  137.8347  156.4345 C.ar    1  UNL1        0.0000
     29 C         138.9609  138.9762  155.7454 C.ar    1  UNL1        0.0007
     30 C         138.6227  140.2206  156.5116 C.ar    1  UNL1        0.0103
     31 C         138.9718  140.3235  157.9668 C.ar    1  UNL1        0.0685
     32 C         138.6336  141.5679  158.7330 C.1     1  UNL1        0.1004
     33 N         138.2955  142.8125  159.4992 N.1     1  UNL1       -0.1908
@<TRIPOS>BOND
     1     2     1    1
     2     2     3    1
     3     3     4    1
     4     3     5    1
     5     5     6    1
     6     6     7    1
     7     7     8    1
     8     9     8    1
     9     9    10    1
    10    10    11    2
    11    10    12    1
    12    12    13    1
    13    13    14    1
    14    15    13    1
    15    15    16    1
    16    16    18    1
    17    18    19    2
    18    19    20    1
    19    20    21   ar
    20    21    22   ar
    21    22    23   ar
    22    23    26    1
    23    26    27   ar
    24    27    28   ar
    25    28    29   ar
    26    29    30   ar
    27    30    31   ar
    28    31    32    1
    29    32    33    3
    30    23    24   ar
    31    24    25   ar
    32    16     2    1
    33    25    20   ar
    34     9     5    1
    35    31    26   ar
    36    15     9    1
    37     7    17    1
@<TRIPOS>MOLECULE
*****
 33 37 0 0 0
SMALL
GASTEIGER

@<TRIPOS>ATOM
      1 C         143.6713  142.8207  166.6681 C.3     1  UNL1        0.0003
      2 C         142.4830  142.1904  167.3320 C.3     1  UNL1        0.0042
      3 C         142.5065  141.9143  168.8063 C.3     1  UNL1        0.0022
      4 C         143.7181  142.2686  169.6165 C.3     1  UNL1        0.0001
      5 C         141.3182  141.2840  169.4702 C.3     1  UNL1        0.0272
      6 C         141.0530  140.8958  170.8946 C.3     1  UNL1        0.0691
      7 N         139.6775  140.3016  170.9646 N.3     1  UNL1       -0.2970
      8 C         139.0926  140.3226  169.5835 C.3     1  UNL1        0.0793
      9 C         140.1066  140.9298  168.6599 C.3     1  UNL1        0.1089
     10 C         140.4762  141.1528  168.3142 C.2     1  UNL1        0.3173
     11 O         138.3902  139.8656  170.4110 O.2     1  UNL1       -0.2501
     12 O         139.9026  140.9889  167.9110 O.3     1  UNL1       -0.4522
     13 C         140.4646  141.2909  167.5771 C.3     1  UNL1        0.1697
     14 C         138.3079  140.8374  165.2216 C.3     1  UNL1        0.0473
     15 C         140.0833  141.2058  167.1857 C.3     1  UNL1        0.0556
     16 C         141.2715  141.8362  166.5218 C.3     1  UNL1        0.0261
     17 H         139.0947  140.8514  171.5958 H       1  UNL1        0.1233
     18 C         141.2481  142.1122  165.0476 C.2     1  UNL1       -0.0248
     19 C         141.0051  143.5060  164.5494 C.2     1  UNL1        0.0145
     20 C         140.9816  143.7822  163.0752 C.ar    1  UNL1        0.0810
     21 C         141.9103  143.0421  162.1586 C.ar    1  UNL1        0.0191
     22 C         141.8868  143.3183  160.6845 C.ar    1  UNL1        0.0031
     23 C         140.9348  144.3344  160.1269 C.ar    1  UNL1        0.0198
     24 C         140.0062  145.0745  161.0434 C.ar    1  UNL1        0.0988
     25 N         140.0296  144.7984  162.5175 N.ar    1  UNL1       -0.2438
     26 C         140.9113  144.6106  158.6526 C.ar    1  UNL1        0.0111
     27 C         141.8029  145.6688  158.0736 C.ar    1  UNL1        0.0007
     28 C         141.7795  145.9450  156.5995 C.ar    1  UNL1        0.0000
     29 C         140.8644  145.1630  155.7043 C.ar    1  UNL1        0.0007
     30 C         139.9728  144.1049  156.2833 C.ar    1  UNL1        0.0103
     31 C         139.9963  143.8287  157.7576 C.ar    1  UNL1        0.0685
     32 C         139.1047  142.7705  158.3366 C.1     1  UNL1        0.1004
     33 N         138.2130  141.7123  158.9156 N.1     1  UNL1       -0.1908
@<TRIPOS>BOND
     1     2     1    1
     2     2     3    1
     3     3     4    1
     4     3     5    1
     5     5     6    1
     6     6     7    1
     7     7     8    1
     8     9     8    1
     9     9    10    1
    10    10    11    2
    11    10    12    1
    12    12    13    1
    13    13    14    1
    14    15    13    1
    15    15    16    1
    16    16    18    1
    17    18    19    2
    18    19    20    1
    19    20    21   ar
    20    21    22   ar
    21    22    23   ar
    22    23    26    1
    23    26    27   ar
    24    27    28   ar
    25    28    29   ar
    26    29    30   ar
    27    30    31   ar
    28    31    32    1
    29    32    33    3
    30    23    24   ar
    31    24    25   ar
    32    16     2    1
    33    25    20   ar
    34     9     5    1
    35    31    26   ar
    36    15     9    1
    37     7    17    1
@<TRIPOS>MOLECULE
*****
 33 37 0 0 0
SMALL
GASTEIGER

@<TRIPOS>ATOM
      1 C         139.2107  139.6634  166.7135 C.3     1  UNL1        0.0003
      2 C         140.1774  140.5186  167.4778 C.3     1  UNL1        0.0042
      3 C         139.9927  140.7253  168.9520 C.3     1  UNL1        0.0022
      4 C         138.8413  140.0768  169.6618 C.3     1  UNL1        0.0001
      5 C         140.9594  141.5805  169.7163 C.3     1  UNL1        0.0272
      6 C         141.0329  141.9632  171.1648 C.3     1  UNL1        0.0691
      7 N         142.2298  142.8482  171.3501 N.3     1  UNL1       -0.2970
      8 C         142.8959  143.0125  170.0162 C.3     1  UNL1        0.0793
      9 C         142.1107  142.2290  169.0064 C.3     1  UNL1        0.1089
     10 C         141.8255  141.9420  168.6294 C.2     1  UNL1        0.3173
     11 O         143.4189  143.5834  170.9037 O.2     1  UNL1       -0.2501
     12 O         142.3728  142.2461  168.2737 O.3     1  UNL1       -0.4522
     13 C         141.9178  141.8386  167.8923 C.3     1  UNL1        0.1697
     14 C         144.0690  142.8557  165.7144 C.3     1  UNL1        0.0473
     15 C         142.2954  142.0222  167.5323 C.3     1  UNL1        0.0556
     16 C         141.3287  141.1670  166.7680 C.3     1  UNL1        0.0261
     17 H         142.8783  142.4195  172.0105 H       1  UNL1        0.1233
     18 C         141.5135  140.9603  165.2938 C.2     1  UNL1       -0.0248
     19 C         142.2763  139.7697  164.7933 C.2     1  UNL1        0.0145
     20 C         142.4611  139.5630  163.3191 C.ar    1  UNL1        0.0810
     21 C         143.7373  138.9707  162.7990 C.ar    1  UNL1        0.0191
     22 C         143.9220  138.7640  161.3248 C.ar    1  UNL1        0.0031
     23 C         142.8306  139.1495  160.3708 C.ar    1  UNL1        0.0198
     24 C         141.5544  139.7417  160.8910 C.ar    1  UNL1        0.0988
     25 N         141.3696  139.9485  162.3651 N.ar    1  UNL1       -0.2438
     26 C         143.0153  138.9427  158.8966 C.ar    1  UNL1        0.0111
     27 C         142.6117  137.6434  158.2652 C.ar    1  UNL1        0.0007
     28 C         142.7963  137.4366  156.7911 C.ar    1  UNL1        0.0000
     29 C         143.3847  138.5291  155.9483 C.ar    1  UNL1        0.0007
     30 C         143.7883  139.8285  156.5798 C.ar    1  UNL1        0.0103
     31 C         143.6036  140.0352  158.0540 C.ar    1  UNL1        0.0685
     32 C         144.0073  141.3346  158.6854 C.1     1  UNL1        0.1004
     33 N         144.4110  142.6340  159.3169 N.1     1  UNL1       -0.1908
@<TRIPOS>BOND
     1     2     1    1
     2     2     3    1
     3     3     4    1
     4     3     5    1
     5     5     6    1
     6     6     7    1
     7     7     8    1
     8     9     8    1
     9     9    10    1
    10    10    11    2
    11    10    12    1
    12    12    13    1
    13    13    14    1
    14    15    13    1
    15    15    16    1
    16    16    18    1
    17    18    19    2
    18    19    20    1
    19    20    21   ar
    20    21    22   ar
    21    22    23   ar
    22    23    26    1
    23    26    27   ar
    24    27    28   ar
    25    28    29   ar
    26    29    30   ar
    27    30    31   ar
    28    31    32    1
    29    32    33    3
    30    23    24   ar
    31    24    25   ar
    32    16     2    1
    33    25    20   ar
    34     9     5    1
    35    31    26   ar
    36    15     9    1
    37     7    17    1
@<TRIPOS>MOLECULE
*****
 33 37 0 0 0
SMALL
GASTEIGER

@<TRIPOS>ATOM
      1 C         143.1623  142.3868  166.3060 C.3     1  UNL1        0.0003
      2 C         142.2367  141.7076  167.2715 C.3     1  UNL1        0.0042
      3 C         142.5355  141.7335  168.7413 C.3     1  UNL1        0.0022
      4 C         143.7597  142.4385  169.2455 C.3     1  UNL1        0.0001
      5 C         141.6099  141.0543  169.7067 C.3     1  UNL1        0.0272
      6 C         141.6440  140.9135  171.1997 C.3     1  UNL1        0.0691
      7 N         140.4409  140.1214  171.6181 N.3     1  UNL1       -0.2970
      8 C         139.6632  139.7727  170.3838 C.3     1  UNL1        0.0793
      9 C         140.3857  140.3493  169.2025 C.3     1  UNL1        0.1089
     10 C         140.6474  140.5594  168.7629 C.2     1  UNL1        0.3173
     11 O         139.1981  139.3749  171.3900 O.2     1  UNL1       -0.2501
     12 O         140.0641  140.2254  168.5046 O.3     1  UNL1       -0.4522
     13 C         140.4981  140.5465  168.0280 C.3     1  UNL1        0.1697
     14 C         138.1467  139.2839  166.2163 C.3     1  UNL1        0.0473
     15 C         140.0871  140.3235  167.7327 C.3     1  UNL1        0.0556
     16 C         141.0126  141.0026  166.7673 C.3     1  UNL1        0.0261
     17 H         139.8615  140.6780  172.2466 H       1  UNL1        0.1233
     18 C         140.7139  140.9767  165.2975 C.2     1  UNL1       -0.0248
     19 C         139.9404  142.0981  164.6696 C.2     1  UNL1        0.0145
     20 C         139.6417  142.0722  163.1999 C.ar    1  UNL1        0.0810
     21 C         140.6031  141.4208  162.2504 C.ar    1  UNL1        0.0191
     22 C         140.3042  141.3950  160.7807 C.ar    1  UNL1        0.0031
     23 C         139.0442  142.0206  160.2605 C.ar    1  UNL1        0.0198
     24 C         138.0828  142.6720  161.2098 C.ar    1  UNL1        0.0988
     25 N         138.3815  142.6978  162.6796 N.ar    1  UNL1       -0.2438
     26 C         138.7454  141.9948  158.7907 C.ar    1  UNL1        0.0111
     27 C         137.9772  140.8490  158.2016 C.ar    1  UNL1        0.0007
     28 C         137.6784  140.8231  156.7319 C.ar    1  UNL1        0.0000
     29 C         138.1477  141.9431  155.8513 C.ar    1  UNL1        0.0007
     30 C         138.9158  143.0889  156.4404 C.ar    1  UNL1        0.0103
     31 C         139.2146  143.1147  157.9102 C.ar    1  UNL1        0.0685
     32 C         139.9827  144.2605  158.4993 C.1     1  UNL1        0.1004
     33 N         140.7509  145.4064  159.0884 N.1     1  UNL1       -0.1908
@<TRIPOS>BOND
     1     2     1    1
     2     2     3    1
     3     3     4    1
     4     3     5    1
     5     5     6    1
     6     6     7    1
     7     7     8    1
     8     9     8    1
     9     9    10    1
    10    10    11    2
    11    10    12    1
    12    12    13    1
    13    13    14    1
    14    15    13    1
    15    15    16    1
    16    16    18    1
    17    18    19    2
    18    19    20    1
    19    20    21   ar
    20    21    22   ar
    21    22    23   ar
    22    23    26    1
    23    26    27   ar
    24    27    28   ar
    25    28    29   ar
    26    29    30   ar
    27    30    31   ar
    28    31    32    1
    29    32    33    3
    30    23    24   ar
    31    24    25   ar
    32    16     2    1
    33    25    20   ar
    34     9     5    1
    35    31    26   ar
    36    15     9    1
    37     7    17    1
@<TRIPOS>MOLECULE
*****
 33 37 0 0 0
SMALL
GASTEIGER

@<TRIPOS>ATOM
      1 C         142.9960  138.8330  166.9520 C.3     1  UNL1        0.0003
      2 C         142.2297  139.9131  167.6565 C.3     1  UNL1        0.0042
      3 C         142.0833  139.8775  169.1490 C.3     1  UNL1        0.0022
      4 C         142.7034  138.7618  169.9369 C.3     1  UNL1        0.0001
      5 C         141.3170  140.9575  169.8534 C.3     1  UNL1        0.0272
      6 C         141.0075  141.1862  171.3032 C.3     1  UNL1        0.0691
      7 N         140.1962  142.4432  171.4112 N.3     1  UNL1       -0.2970
      8 C         140.0043  142.9914  170.0282 C.3     1  UNL1        0.0793
      9 C         140.6970  142.0731  169.0654 C.3     1  UNL1        0.1089
     10 C         140.9505  141.7385  168.7053 C.2     1  UNL1        0.3173
     11 O         139.5040  143.6257  170.8852 O.2     1  UNL1       -0.2501
     12 O         140.6590  142.2669  168.3125 O.3     1  UNL1       -0.4522
     13 C         141.0237  141.7563  167.9591 C.3     1  UNL1        0.1697
     14 C         140.0191  143.7510  165.6316 C.3     1  UNL1        0.0473
     15 C         140.8433  142.1087  167.5730 C.3     1  UNL1        0.0556
     16 C         141.6097  141.0287  166.8686 C.3     1  UNL1        0.0261
     17 H         140.6889  143.1247  171.9883 H       1  UNL1        0.1233
     18 C         141.7560  141.0644  165.3761 C.2     1  UNL1       -0.0248
     19 C         143.0071  141.6146  164.7581 C.2     1  UNL1        0.0145
     20 C         143.1535  141.6503  163.2657 C.ar    1  UNL1        0.0810
     21 C         142.1256  140.9899  162.3953 C.ar    1  UNL1        0.0191
     22 C         142.2721  141.0257  160.9029 C.ar    1  UNL1        0.0031
     23 C         143.4462  141.7217  160.2809 C.ar    1  UNL1        0.0198
     24 C         144.4740  142.3820  161.1513 C.ar    1  UNL1        0.0988
     25 N         144.3276  142.3463  162.6437 N.ar    1  UNL1       -0.2438
     26 C         143.5926  141.7574  158.7884 C.ar    1  UNL1        0.0111
     27 C         144.2525  140.6167  158.0722 C.ar    1  UNL1        0.0007
     28 C         144.3990  140.6523  156.5798 C.ar    1  UNL1        0.0000
     29 C         143.8855  141.8287  155.8037 C.ar    1  UNL1        0.0007
     30 C         143.2255  142.9695  156.5199 C.ar    1  UNL1        0.0103
     31 C         143.0791  142.9338  158.0124 C.ar    1  UNL1        0.0685
     32 C         142.4192  144.0746  158.7287 C.1     1  UNL1        0.1004
     33 N         141.7591  145.2154  159.4450 N.1     1  UNL1       -0.1908
@<TRIPOS>BOND
     1     2     1    1
     2     2     3    1
     3     3     4    1
     4     3     5    1
     5     5     6    1
     6     6     7    1
     7     7     8    1
     8     9     8    1
     9     9    10    1
    10    10    11    2
    11    10    12    1
    12    12    13    1
    13    13    14    1
    14    15    13    1
    15    15    16    1
    16    16    18    1
    17    18    19    2
    18    19    20    1
    19    20    21   ar
    20    21    22   ar
    21    22    23   ar
    22    23    26    1
    23    26    27   ar
    24    27    28   ar
    25    28    29   ar
    26    29    30   ar
    27    30    31   ar
    28    31    32    1
    29    32    33    3
    30    23    24   ar
    31    24    25   ar
    32    16     2    1
    33    25    20   ar
    34     9     5    1
    35    31    26   ar
    36    15     9    1
    37     7    17    1
@<TRIPOS>MOLECULE
*****
 33 37 0 0 0
SMALL
GASTEIGER

@<TRIPOS>ATOM
      1 C         143.8210  142.3665  160.0620 C.3     1  UNL1        0.0003
      2 C         142.8942  143.3779  159.4551 C.3     1  UNL1        0.0042
      3 C         142.9161  143.6223  157.9753 C.3     1  UNL1        0.0022
      4 C         143.8649  142.8554  157.1024 C.3     1  UNL1        0.0001
      5 C         141.9893  144.6336  157.3684 C.3     1  UNL1        0.0272
      6 C         141.7857  145.0862  155.9529 C.3     1  UNL1        0.0691
      7 N         140.7111  146.1327  155.9509 N.3     1  UNL1       -0.2970
      8 C         140.2507  146.3270  157.3652 C.3     1  UNL1        0.0793
      9 C         141.0407  145.4005  158.2413 C.3     1  UNL1        0.1089
     10 C         141.3286  145.0612  158.5696 C.2     1  UNL1        0.3173
     11 O         139.7039  147.0022  156.5701 O.2     1  UNL1       -0.2501
     12 O         140.8794  145.4208  159.0025 O.3     1  UNL1       -0.4522
     13 C         141.3177  144.9389  159.3095 C.3     1  UNL1        0.1697
     14 C         139.6267  146.1416  161.7792 C.3     1  UNL1        0.0473
     15 C         141.0187  145.1560  159.7211 C.3     1  UNL1        0.0556
     16 C         141.9455  144.1447  160.3279 C.3     1  UNL1        0.0261
     17 H         139.9298  145.8255  155.3716 H       1  UNL1        0.1233
     18 C         141.9236  143.9003  161.8078 C.2     1  UNL1       -0.0248
     19 C         141.1199  142.7646  162.3684 C.2     1  UNL1        0.0145
     20 C         141.0979  142.5201  163.8482 C.ar    1  UNL1        0.0810
     21 C         140.1948  143.3317  164.7291 C.ar    1  UNL1        0.0191
     22 C         140.1729  143.0871  166.2089 C.ar    1  UNL1        0.0031
     23 C         141.0539  142.0312  166.8078 C.ar    1  UNL1        0.0198
     24 C         141.9569  141.2197  165.9269 C.ar    1  UNL1        0.0988
     25 N         141.9789  141.4641  164.4471 N.ar    1  UNL1       -0.2438
     26 C         141.0319  141.7867  168.2876 C.ar    1  UNL1        0.0111
     27 C         141.8980  142.6077  169.1963 C.ar    1  UNL1        0.0007
     28 C         141.8761  142.3632  170.6760 C.ar    1  UNL1        0.0000
     29 C         140.9881  141.2977  171.2471 C.ar    1  UNL1        0.0007
     30 C         140.1220  140.4767  170.3384 C.ar    1  UNL1        0.0103
     31 C         140.1439  140.7212  168.8586 C.ar    1  UNL1        0.0685
     32 C         139.2778  139.9002  167.9499 C.1     1  UNL1        0.1004
     33 N         138.4116  139.0792  167.0412 N.1     1  UNL1       -0.1908
@<TRIPOS>BOND
     1     2     1    1
     2     2     3    1
     3     3     4    1
     4     3     5    1
     5     5     6    1
     6     6     7    1
     7     7     8    1
     8     9     8    1
     9     9    10    1
    10    10    11    2
    11    10    12    1
    12    12    13    1
    13    13    14    1
    14    15    13    1
    15    15    16    1
    16    16    18    1
    17    18    19    2
    18    19    20    1
    19    20    21   ar
    20    21    22   ar
    21    22    23   ar
    22    23    26    1
    23    26    27   ar
    24    27    28   ar
    25    28    29   ar
    26    29    30   ar
    27    30    31   ar
    28    31    32    1
    29    32    33    3
    30    23    24   ar
    31    24    25   ar
    32    16     2    1
    33    25    20   ar
    34     9     5    1
    35    31    26   ar
    36    15     9    1
    37     7    17    1
@<TRIPOS>MOLECULE
*****
 33 37 0 0 0
SMALL
GASTEIGER

@<TRIPOS>ATOM
      1 C         142.9706  138.8398  166.9999 C.3     1  UNL1        0.0003
      2 C         142.1779  139.8677  167.7519 C.3     1  UNL1        0.0042
      3 C         142.0948  139.8034  169.2482 C.3     1  UNL1        0.0022
      4 C         142.8044  138.7113  169.9926 C.3     1  UNL1        0.0001
      5 C         141.3022  140.8312  170.0001 C.3     1  UNL1        0.0272
      6 C         141.0406  141.0228  171.4647 C.3     1  UNL1        0.0691
      7 N         140.1695  142.2333  171.6254 N.3     1  UNL1       -0.2970
      8 C         139.8927  142.7898  170.2602 C.3     1  UNL1        0.0793
      9 C         140.5928  141.9233  169.2557 C.3     1  UNL1        0.1089
     10 C         140.8486  141.6077  168.8805 C.2     1  UNL1        0.3173
     11 O         139.3952  143.3845  171.1467 O.2     1  UNL1       -0.2501
     12 O         140.5139  142.1253  168.5082 O.3     1  UNL1       -0.4522
     13 C         140.8902  141.6397  168.1323 C.3     1  UNL1        0.1697
     14 C         139.6879  143.6106  165.8794 C.3     1  UNL1        0.0473
     15 C         140.6759  141.9875  167.7594 C.3     1  UNL1        0.0556
     16 C         141.4685  140.9597  167.0075 C.3     1  UNL1        0.0261
     17 H         140.6489  142.9319  172.1933 H       1  UNL1        0.1233
     18 C         141.5516  141.0239  165.5111 C.2     1  UNL1       -0.0248
     19 C         142.7114  141.7110  164.8533 C.2     1  UNL1        0.0145
     20 C         142.7946  141.7753  163.3570 C.ar    1  UNL1        0.0810
     21 C         144.1097  142.0508  162.6900 C.ar    1  UNL1        0.0191
     22 C         144.1927  142.1151  161.1937 C.ar    1  UNL1        0.0031
     23 C         142.9609  141.9039  160.3644 C.ar    1  UNL1        0.0198
     24 C         141.6459  141.6284  161.0313 C.ar    1  UNL1        0.0988
     25 N         141.5627  141.5641  162.5276 N.ar    1  UNL1       -0.2438
     26 C         143.0440  141.9682  158.8680 C.ar    1  UNL1        0.0111
     27 C         143.0142  143.2964  158.1717 C.ar    1  UNL1        0.0007
     28 C         143.0973  143.3608  156.6754 C.ar    1  UNL1        0.0000
     29 C         143.2101  142.0969  155.8754 C.ar    1  UNL1        0.0007
     30 C         143.2399  140.7687  156.5718 C.ar    1  UNL1        0.0103
     31 C         143.1568  140.7044  158.0681 C.ar    1  UNL1        0.0685
     32 C         143.1866  139.3762  158.7645 C.1     1  UNL1        0.1004
     33 N         143.2164  138.0479  159.4609 N.1     1  UNL1       -0.1908
@<TRIPOS>BOND
     1     2     1    1
     2     2     3    1
     3     3     4    1
     4     3     5    1
     5     5     6    1
     6     6     7    1
     7     7     8    1
     8     9     8    1
     9     9    10    1
    10    10    11    2
    11    10    12    1
    12    12    13    1
    13    13    14    1
    14    15    13    1
    15    15    16    1
    16    16    18    1
    17    18    19    2
    18    19    20    1
    19    20    21   ar
    20    21    22   ar
    21    22    23   ar
    22    23    26    1
    23    26    27   ar
    24    27    28   ar
    25    28    29   ar
    26    29    30   ar
    27    30    31   ar
    28    31    32    1
    29    32    33    3
    30    23    24   ar
    31    24    25   ar
    32    16     2    1
    33    25    20   ar
    34     9     5    1
    35    31    26   ar
    36    15     9    1
    37     7    17    1
@<TRIPOS>MOLECULE
*****
 33 37 0 0 0
SMALL
GASTEIGER

@<TRIPOS>ATOM
      1 C         139.3429  140.8299  165.9078 C.3     1  UNL1        0.0003
      2 C         140.5165  141.2831  166.7249 C.3     1  UNL1        0.0042
      3 C         140.5666  140.9862  168.1944 C.3     1  UNL1        0.0022
      4 C         139.4432  140.2361  168.8468 C.3     1  UNL1        0.0001
      5 C         141.7400  141.4394  169.0115 C.3     1  UNL1        0.0272
      6 C         142.0648  141.2934  170.4686 C.3     1  UNL1        0.0691
      7 N         143.3888  141.9533  170.7167 N.3     1  UNL1       -0.2970
      8 C         143.8823  142.5070  169.4130 C.3     1  UNL1        0.0793
      9 C         142.8633  142.1894  168.3590 C.3     1  UNL1        0.1089
     10 C         142.4914  142.0754  167.9659 C.2     1  UNL1        0.3173
     11 O         144.5974  142.6907  170.3305 O.2     1  UNL1       -0.2501
     12 O         143.0223  142.4343  167.6375 O.3     1  UNL1       -0.4522
     13 C         142.4663  142.2238  167.2312 C.3     1  UNL1        0.1697
     14 C         144.4209  143.7358  165.1577 C.3     1  UNL1        0.0473
     15 C         142.8131  142.4863  166.8896 C.3     1  UNL1        0.0556
     16 C         141.6397  142.0331  166.0725 C.3     1  UNL1        0.0261
     17 H         144.0544  141.2692  171.0764 H       1  UNL1        0.1233
     18 C         141.5896  142.3300  164.6030 C.2     1  UNL1       -0.0248
     19 C         141.0452  143.6421  164.1212 C.2     1  UNL1        0.0145
     20 C         140.9951  143.9391  162.6517 C.ar    1  UNL1        0.0810
     21 C         141.8800  143.1853  161.7036 C.ar    1  UNL1        0.0191
     22 C         141.8298  143.4824  160.2341 C.ar    1  UNL1        0.0031
     23 C         140.8948  144.5330  159.7128 C.ar    1  UNL1        0.0198
     24 C         140.0099  145.2867  160.6609 C.ar    1  UNL1        0.0988
     25 N         140.0601  144.9898  162.1304 N.ar    1  UNL1       -0.2438
     26 C         140.8446  144.8300  158.2433 C.ar    1  UNL1        0.0111
     27 C         141.7407  145.8819  157.6598 C.ar    1  UNL1        0.0007
     28 C         141.6906  146.1790  156.1904 C.ar    1  UNL1        0.0000
     29 C         140.7443  145.4242  155.3045 C.ar    1  UNL1        0.0007
     30 C         139.8482  144.3723  155.8880 C.ar    1  UNL1        0.0103
     31 C         139.8984  144.0752  157.3575 C.ar    1  UNL1        0.0685
     32 C         139.0023  143.0233  157.9410 C.1     1  UNL1        0.1004
     33 N         138.1062  141.9714  158.5245 N.1     1  UNL1       -0.1908
@<TRIPOS>BOND
     1     2     1    1
     2     2     3    1
     3     3     4    1
     4     3     5    1
     5     5     6    1
     6     6     7    1
     7     7     8    1
     8     9     8    1
     9     9    10    1
    10    10    11    2
    11    10    12    1
    12    12    13    1
    13    13    14    1
    14    15    13    1
    15    15    16    1
    16    16    18    1
    17    18    19    2
    18    19    20    1
    19    20    21   ar
    20    21    22   ar
    21    22    23   ar
    22    23    26    1
    23    26    27   ar
    24    27    28   ar
    25    28    29   ar
    26    29    30   ar
    27    30    31   ar
    28    31    32    1
    29    32    33    3
    30    23    24   ar
    31    24    25   ar
    32    16     2    1
    33    25    20   ar
    34     9     5    1
    35    31    26   ar
    36    15     9    1
    37     7    17    1
@<TRIPOS>MOLECULE
*****
 33 37 0 0 0
SMALL
GASTEIGER

@<TRIPOS>ATOM
      1 C         141.9624  139.4735  165.8022 C.3     1  UNL1        0.0003
      2 C         141.5083  140.6039  166.6776 C.3     1  UNL1        0.0042
      3 C         141.8087  140.5818  168.1471 C.3     1  UNL1        0.0022
      4 C         142.5630  139.4293  168.7412 C.3     1  UNL1        0.0001
      5 C         141.3547  141.7121  169.0224 C.3     1  UNL1        0.0272
      6 C         141.5034  141.9645  170.4935 C.3     1  UNL1        0.0691
      7 N         140.8410  143.2729  170.8086 N.3     1  UNL1       -0.2970
      8 C         140.2829  143.8292  169.5322 C.3     1  UNL1        0.0793
      9 C         140.6004  142.8645  168.4283 C.3     1  UNL1        0.1089
     10 C         140.7143  142.5129  168.0169 C.2     1  UNL1        0.3173
     11 O         140.0997  144.4974  170.4845 O.2     1  UNL1       -0.2501
     12 O         140.3534  143.0585  167.7161 O.3     1  UNL1       -0.4522
     13 C         140.5642  142.5239  167.2822 C.3     1  UNL1        0.1697
     14 C         139.0427  144.5752  165.3117 C.3     1  UNL1        0.0473
     15 C         140.3001  142.8866  166.9588 C.3     1  UNL1        0.0556
     16 C         140.7541  141.7563  166.0835 C.3     1  UNL1        0.0261
     17 H         141.5243  143.9216  171.1993 H       1  UNL1        0.1233
     18 C         140.4538  141.7784  164.6140 C.2     1  UNL1       -0.0248
     19 C         141.4360  142.3861  163.6569 C.2     1  UNL1        0.0145
     20 C         141.1357  142.4083  162.1874 C.ar    1  UNL1        0.0810
     21 C         142.0351  141.6877  161.2272 C.ar    1  UNL1        0.0191
     22 C         141.7347  141.7099  159.7577 C.ar    1  UNL1        0.0031
     23 C         140.5352  142.4526  159.2485 C.ar    1  UNL1        0.0198
     24 C         139.6359  143.1731  160.2087 C.ar    1  UNL1        0.0988
     25 N         139.9361  143.1510  161.6782 N.ar    1  UNL1       -0.2438
     26 C         140.2349  142.4748  157.7790 C.ar    1  UNL1        0.0111
     27 C         139.4493  141.3585  157.1572 C.ar    1  UNL1        0.0007
     28 C         139.1489  141.3806  155.6877 C.ar    1  UNL1        0.0000
     29 C         139.6342  142.5191  154.8401 C.ar    1  UNL1        0.0007
     30 C         140.4198  143.6354  155.4619 C.ar    1  UNL1        0.0103
     31 C         140.7202  143.6132  156.9314 C.ar    1  UNL1        0.0685
     32 C         141.5058  144.7295  157.5532 C.1     1  UNL1        0.1004
     33 N         142.2914  145.8458  158.1751 N.1     1  UNL1       -0.1908
@<TRIPOS>BOND
     1     2     1    1
     2     2     3    1
     3     3     4    1
     4     3     5    1
     5     5     6    1
     6     6     7    1
     7     7     8    1
     8     9     8    1
     9     9    10    1
    10    10    11    2
    11    10    12    1
    12    12    13    1
    13    13    14    1
    14    15    13    1
    15    15    16    1
    16    16    18    1
    17    18    19    2
    18    19    20    1
    19    20    21   ar
    20    21    22   ar
    21    22    23   ar
    22    23    26    1
    23    26    27   ar
    24    27    28   ar
    25    28    29   ar
    26    29    30   ar
    27    30    31   ar
    28    31    32    1
    29    32    33    3
    30    23    24   ar
    31    24    25   ar
    32    16     2    1
    33    25    20   ar
    34     9     5    1
    35    31    26   ar
    36    15     9    1
    37     7    17    1
