@<TRIPOS>MOLECULE
*****
 33 37 0 0 0
SMALL
GASTEIGER

@<TRIPOS>ATOM
      1 C         143.3618  142.7395  162.8433 C.ar    1  UNL1        0.0677
      2 C         144.8445  142.8097  162.6272 C.ar    1  UNL1        0.0162
      3 C         145.7449  141.7971  163.2705 C.ar    1  UNL1        0.0029
      4 C         145.1626  140.7144  164.1300 C.ar    1  UNL1        0.0188
      5 C         143.6800  140.6442  164.3461 C.ar    1  UNL1        0.0801
      6 C         142.7796  141.6567  163.7028 C.ar    1  UNL1        0.1120
      7 N         141.3674  141.3366  164.0946 N.ar    1  UNL1       -0.2256
      8 C         141.3951  140.1262  164.9800 C.ar    1  UNL1        0.1439
      9 N         142.8244  139.6982  165.1355 N.ar    1  UNL1       -0.3094
     10 C         143.3124  138.5295  165.9392 C.3     1  UNL1        0.1319
     11 C         140.2029  139.4605  165.6010 C.ar    1  UNL1        0.0343
     12 C         139.5892  140.0304  166.8454 C.ar    1  UNL1        0.0053
     13 C         138.3971  139.3647  167.4663 C.ar    1  UNL1        0.0297
     14 C         137.8186  138.1291  166.8429 C.ar    1  UNL1        0.1401
     15 F         136.6264  137.4634  167.4639 F       1  UNL1       -0.2042
     16 C         138.4324  137.5592  165.5986 C.ar    1  UNL1        0.0297
     17 C         139.6245  138.2248  164.9776 C.ar    1  UNL1        0.0053
     18 N         142.4613  143.7521  162.2000 N.pl3   1  UNL1       -0.3100
     19 H         142.5449  144.7046  162.4344 H       1  UNL1        0.1523
     20 C         140.7997  141.9776  159.0631 C.ar    1  UNL1        0.1742
     21 C         141.8275  142.4163  160.0636 C.ar    1  UNL1        0.0562
     22 C         141.4335  143.3133  161.1994 C.ar    1  UNL1        0.0710
     23 C         140.0116  143.7716  161.3347 C.ar    1  UNL1        0.1153
     24 N         138.9838  143.3329  160.3342 N.ar    1  UNL1       -0.2222
     25 C         139.3778  142.4358  159.1983 C.ar    1  UNL1        0.1835
     26 N         138.3500  141.9971  158.1978 N.ar    1  UNL1       -0.2692
     27 C         137.6637  140.6637  158.1657 C.ar    1  UNL1        0.1837
     28 N         136.7176  140.6572  157.0017 N.ar    1  UNL1       -0.2280
     29 C         136.8191  141.9866  156.3144 C.ar    1  UNL1        0.0786
     30 C         136.0473  142.4131  155.1010 C.3     1  UNL1        0.0538
     31 C         137.8280  142.8147  157.0536 C.ar    1  UNL1        0.0977
     32 C         141.4682  139.6276  158.1795 C.3     1  UNL1        0.2526
     33 O         141.1937  141.0805  157.9273 O.3     1  UNL1       -0.4683
@<TRIPOS>BOND
     1    32    33    1
     2    33    20    1
     3    20    21   ar
     4    21    22   ar
     5    22    18    1
     6    18     1    1
     7     1     2   ar
     8     2     3   ar
     9     3     4   ar
    10     4     5   ar
    11     5     6   ar
    12     6     7   ar
    13     7     8   ar
    14     8    11    1
    15    11    12   ar
    16    12    13   ar
    17    13    14   ar
    18    14    15    1
    19    14    16   ar
    20    16    17   ar
    21     8     9   ar
    22     9    10    1
    23    22    23   ar
    24    23    24   ar
    25    24    25   ar
    26    25    26    1
    27    26    27   ar
    28    27    28   ar
    29    28    29   ar
    30    29    30    1
    31    29    31   ar
    32    25    20   ar
    33    31    26   ar
    34     6     1   ar
    35    17    11   ar
    36     9     5   ar
    37    18    19    1
@<TRIPOS>MOLECULE
*****
 33 37 0 0 0
SMALL
GASTEIGER

@<TRIPOS>ATOM
      1 C         144.0326  141.8977  162.7476 C.ar    1  UNL1        0.0677
      2 C         144.5772  143.2510  162.3981 C.ar    1  UNL1        0.0162
      3 C         143.9026  144.4871  162.9147 C.ar    1  UNL1        0.0029
      4 C         142.6836  144.3700  163.7808 C.ar    1  UNL1        0.0188
      5 C         142.1391  143.0168  164.1304 C.ar    1  UNL1        0.0801
      6 C         142.8136  141.7807  163.6138 C.ar    1  UNL1        0.1120
      7 N         142.0537  140.5912  164.1217 N.ar    1  UNL1       -0.2256
      8 C         140.9095  141.0923  164.9522 C.ar    1  UNL1        0.1439
      9 N         140.9623  142.5914  164.9576 N.ar    1  UNL1       -0.3094
     10 C         140.0062  143.5048  165.6658 C.3     1  UNL1        0.1319
     11 C         139.8913  140.2434  165.6541 C.ar    1  UNL1        0.0343
     12 C         139.1111  139.2185  164.8855 C.ar    1  UNL1        0.0053
     13 C         138.0929  138.3696  165.5875 C.ar    1  UNL1        0.0297
     14 C         137.8550  138.5457  167.0580 C.ar    1  UNL1        0.1401
     15 F         136.8367  137.6968  167.7599 F       1  UNL1       -0.2042
     16 C         138.6352  139.5707  167.8265 C.ar    1  UNL1        0.0297
     17 C         139.6533  140.4195  167.1246 C.ar    1  UNL1        0.0053
     18 N         144.7072  140.6615  162.2310 N.pl3   1  UNL1       -0.3100
     19 H         145.5624  140.3681  162.6205 H       1  UNL1        0.1523
     20 C         143.2679  139.7054  158.6583 C.ar    1  UNL1        0.1742
     21 C         143.8965  140.4945  159.7683 C.ar    1  UNL1        0.0562
     22 C         144.0786  139.8724  161.1210 C.ar    1  UNL1        0.0710
     23 C         143.6321  138.4610  161.3637 C.ar    1  UNL1        0.1153
     24 N         143.0036  137.6719  160.2536 N.ar    1  UNL1       -0.2222
     25 C         142.8214  138.2941  158.9009 C.ar    1  UNL1        0.1835
     26 N         142.1929  137.5050  157.7909 N.ar    1  UNL1       -0.2692
     27 C         140.8243  137.7254  157.2177 C.ar    1  UNL1        0.1837
     28 N         140.6081  136.7136  156.1317 N.ar    1  UNL1       -0.2280
     29 C         141.8430  135.8677  156.0337 C.ar    1  UNL1        0.0786
     30 C         142.0603  134.7321  155.0781 C.3     1  UNL1        0.0538
     31 C         142.8224  136.3569  157.0592 C.ar    1  UNL1        0.0977
     32 C         144.1751  140.2242  156.2797 C.3     1  UNL1        0.2526
     33 O         143.0857  140.3276  157.3056 O.3     1  UNL1       -0.4683
@<TRIPOS>BOND
     1    32    33    1
     2    33    20    1
     3    20    21   ar
     4    21    22   ar
     5    22    18    1
     6    18     1    1
     7     1     2   ar
     8     2     3   ar
     9     3     4   ar
    10     4     5   ar
    11     5     6   ar
    12     6     7   ar
    13     7     8   ar
    14     8    11    1
    15    11    12   ar
    16    12    13   ar
    17    13    14   ar
    18    14    15    1
    19    14    16   ar
    20    16    17   ar
    21     8     9   ar
    22     9    10    1
    23    22    23   ar
    24    23    24   ar
    25    24    25   ar
    26    25    26    1
    27    26    27   ar
    28    27    28   ar
    29    28    29   ar
    30    29    30    1
    31    29    31   ar
    32    25    20   ar
    33    31    26   ar
    34     6     1   ar
    35    17    11   ar
    36     9     5   ar
    37    18    19    1
@<TRIPOS>MOLECULE
*****
 33 37 0 0 0
SMALL
GASTEIGER

@<TRIPOS>ATOM
      1 C         138.5920  140.5983  158.8007 C.ar    1  UNL1        0.0677
      2 C         137.8636  140.7335  157.4965 C.ar    1  UNL1        0.0162
      3 C         137.9376  142.0182  156.7258 C.ar    1  UNL1        0.0029
      4 C         138.7401  143.1677  157.2593 C.ar    1  UNL1        0.0188
      5 C         139.4686  143.0325  158.5635 C.ar    1  UNL1        0.0801
      6 C         139.3945  141.7478  159.3342 C.ar    1  UNL1        0.1120
      7 N         140.2123  141.9077  160.5815 N.ar    1  UNL1       -0.2256
      8 C         140.7918  143.2913  160.5817 C.ar    1  UNL1        0.1439
      9 N         140.3321  143.9864  159.3345 N.ar    1  UNL1       -0.3094
     10 C         140.6756  145.3892  158.9294 C.3     1  UNL1        0.1319
     11 C         141.6757  143.8769  161.6427 C.ar    1  UNL1        0.0343
     12 C         143.1509  143.6058  161.6237 C.ar    1  UNL1        0.0053
     13 C         144.0347  144.1915  162.6847 C.ar    1  UNL1        0.0297
     14 C         143.4434  145.0481  163.7647 C.ar    1  UNL1        0.1401
     15 F         144.3274  145.6338  164.8258 F       1  UNL1       -0.2042
     16 C         141.9683  145.3192  163.7838 C.ar    1  UNL1        0.0297
     17 C         141.0844  144.7336  162.7228 C.ar    1  UNL1        0.0053
     18 N         138.5180  139.3136  159.5715 N.pl3   1  UNL1       -0.3100
     19 H         138.4468  138.4560  159.0932 H       1  UNL1        0.1523
     20 C         139.5278  138.4547  163.3121 C.ar    1  UNL1        0.1742
     21 C         139.4932  138.4328  161.8127 C.ar    1  UNL1        0.0562
     22 C         138.5526  139.3355  161.0709 C.ar    1  UNL1        0.0710
     23 C         137.6464  140.2601  161.8285 C.ar    1  UNL1        0.1153
     24 N         137.6809  140.2820  163.3280 N.ar    1  UNL1       -0.2222
     25 C         138.6216  139.3793  164.0698 C.ar    1  UNL1        0.1835
     26 N         138.6562  139.4012  165.5692 N.ar    1  UNL1       -0.2692
     27 C         137.8574  138.5192  166.4825 C.ar    1  UNL1        0.1837
     28 N         138.2031  138.8819  167.8964 N.ar    1  UNL1       -0.2280
     29 C         139.2155  139.9880  167.8569 C.ar    1  UNL1        0.0786
     30 C         139.8385  140.6559  169.0468 C.3     1  UNL1        0.0538
     31 C         139.4955  140.3089  166.4187 C.ar    1  UNL1        0.0977
     32 C         141.8391  138.0372  164.4228 C.3     1  UNL1        0.2526
     33 O         140.4685  137.5520  164.0540 O.3     1  UNL1       -0.4683
@<TRIPOS>BOND
     1    32    33    1
     2    33    20    1
     3    20    21   ar
     4    21    22   ar
     5    22    18    1
     6    18     1    1
     7     1     2   ar
     8     2     3   ar
     9     3     4   ar
    10     4     5   ar
    11     5     6   ar
    12     6     7   ar
    13     7     8   ar
    14     8    11    1
    15    11    12   ar
    16    12    13   ar
    17    13    14   ar
    18    14    15    1
    19    14    16   ar
    20    16    17   ar
    21     8     9   ar
    22     9    10    1
    23    22    23   ar
    24    23    24   ar
    25    24    25   ar
    26    25    26    1
    27    26    27   ar
    28    27    28   ar
    29    28    29   ar
    30    29    30    1
    31    29    31   ar
    32    25    20   ar
    33    31    26   ar
    34     6     1   ar
    35    17    11   ar
    36     9     5   ar
    37    18    19    1
@<TRIPOS>MOLECULE
*****
 33 37 0 0 0
SMALL
GASTEIGER

@<TRIPOS>ATOM
      1 C         139.5384  139.1667  162.5585 C.ar    1  UNL1        0.0677
      2 C         140.3476  138.2627  161.6765 C.ar    1  UNL1        0.0162
      3 C         141.6364  137.6823  162.1784 C.ar    1  UNL1        0.0029
      4 C         142.1161  138.0058  163.5623 C.ar    1  UNL1        0.0188
      5 C         141.3070  138.9099  164.4443 C.ar    1  UNL1        0.0801
      6 C         140.0181  139.4903  163.9424 C.ar    1  UNL1        0.1120
      7 N         139.4389  140.3438  165.0316 N.ar    1  UNL1       -0.2256
      8 C         140.3698  140.2908  166.2065 C.ar    1  UNL1        0.1439
      9 N         141.5243  139.4046  165.8436 N.ar    1  UNL1       -0.3094
     10 C         142.6913  139.0716  166.7252 C.3     1  UNL1        0.1319
     11 C         140.1796  140.9996  167.5148 C.ar    1  UNL1        0.0343
     12 C         139.5334  140.2880  168.6663 C.ar    1  UNL1        0.0053
     13 C         139.3432  140.9968  169.9745 C.ar    1  UNL1        0.0297
     14 C         139.7992  142.4172  170.1312 C.ar    1  UNL1        0.1401
     15 F         139.6090  143.1260  171.4395 F       1  UNL1       -0.2042
     16 C         140.4454  143.1288  168.9797 C.ar    1  UNL1        0.0297
     17 C         140.6356  142.4200  167.6715 C.ar    1  UNL1        0.0053
     18 N         138.2495  139.7472  162.0566 N.pl3   1  UNL1       -0.3100
     19 H         137.4103  139.5753  162.5418 H       1  UNL1        0.1523
     20 C         138.0470  140.7879  158.2323 C.ar    1  UNL1        0.1742
     21 C         138.0571  139.9455  159.4733 C.ar    1  UNL1        0.0562
     22 C         138.2394  140.5897  160.8156 C.ar    1  UNL1        0.0710
     23 C         138.4114  142.0764  160.9169 C.ar    1  UNL1        0.1153
     24 N         138.4013  142.9188  159.6758 N.ar    1  UNL1       -0.2222
     25 C         138.2190  142.2745  158.3335 C.ar    1  UNL1        0.1835
     26 N         138.2089  143.1170  157.0924 N.ar    1  UNL1       -0.2692
     27 C         137.0555  143.2809  156.1475 C.ar    1  UNL1        0.1837
     28 N         137.4841  144.2086  155.0495 N.ar    1  UNL1       -0.2280
     29 C         138.9023  144.6181  155.3158 C.ar    1  UNL1        0.0786
     30 C         139.7277  145.5403  154.4683 C.3     1  UNL1        0.0538
     31 C         139.3502  143.9434  156.5784 C.ar    1  UNL1        0.0977
     32 C         139.0626  139.7238  156.0907 C.3     1  UNL1        0.2526
     33 O         137.8647  140.1436  156.8899 O.3     1  UNL1       -0.4683
@<TRIPOS>BOND
     1    32    33    1
     2    33    20    1
     3    20    21   ar
     4    21    22   ar
     5    22    18    1
     6    18     1    1
     7     1     2   ar
     8     2     3   ar
     9     3     4   ar
    10     4     5   ar
    11     5     6   ar
    12     6     7   ar
    13     7     8   ar
    14     8    11    1
    15    11    12   ar
    16    12    13   ar
    17    13    14   ar
    18    14    15    1
    19    14    16   ar
    20    16    17   ar
    21     8     9   ar
    22     9    10    1
    23    22    23   ar
    24    23    24   ar
    25    24    25   ar
    26    25    26    1
    27    26    27   ar
    28    27    28   ar
    29    28    29   ar
    30    29    30    1
    31    29    31   ar
    32    25    20   ar
    33    31    26   ar
    34     6     1   ar
    35    17    11   ar
    36     9     5   ar
    37    18    19    1
@<TRIPOS>MOLECULE
*****
 33 37 0 0 0
SMALL
GASTEIGER

@<TRIPOS>ATOM
      1 C         143.5916  140.8333  159.0639 C.ar    1  UNL1        0.0677
      2 C         144.3023  141.1561  157.7830 C.ar    1  UNL1        0.0162
      3 C         144.0661  142.4734  157.1057 C.ar    1  UNL1        0.0029
      4 C         143.1191  143.4679  157.7093 C.ar    1  UNL1        0.0188
      5 C         142.4085  143.1451  158.9901 C.ar    1  UNL1        0.0801
      6 C         142.6447  141.8278  159.6674 C.ar    1  UNL1        0.1120
      7 N         141.8075  141.7894  160.9115 N.ar    1  UNL1       -0.2256
      8 C         141.0539  143.0831  161.0031 C.ar    1  UNL1        0.1439
      9 N         141.4253  143.9210  159.8156 N.ar    1  UNL1       -0.3094
     10 C         140.9049  145.2937  159.5076 C.3     1  UNL1        0.1319
     11 C         140.0968  143.4710  162.0911 C.ar    1  UNL1        0.0343
     12 C         138.6318  143.1877  161.9374 C.ar    1  UNL1        0.0053
     13 C         137.6749  143.5756  163.0254 C.ar    1  UNL1        0.0297
     14 C         138.1829  144.2466  164.2670 C.ar    1  UNL1        0.1401
     15 F         137.2258  144.6345  165.3551 F       1  UNL1       -0.2042
     16 C         139.6478  144.5298  164.4207 C.ar    1  UNL1        0.0297
     17 C         140.6048  144.1420  163.3327 C.ar    1  UNL1        0.0053
     18 N         143.8278  139.5159  159.7412 N.pl3   1  UNL1       -0.3100
     19 H         144.0743  138.7256  159.2084 H       1  UNL1        0.1523
     20 C         142.5288  138.3612  163.3090 C.ar    1  UNL1        0.1742
     21 C         142.6682  138.4744  161.8198 C.ar    1  UNL1        0.0562
     22 C         143.6884  139.4026  161.2304 C.ar    1  UNL1        0.0710
     23 C         144.5694  140.2177  162.1303 C.ar    1  UNL1        0.1153
     24 N         144.4300  140.1045  163.6195 N.ar    1  UNL1       -0.2222
     25 C         143.4097  139.1762  164.2089 C.ar    1  UNL1        0.1835
     26 N         143.2703  139.0629  165.6981 N.ar    1  UNL1       -0.2692
     27 C         143.8567  137.9836  166.5590 C.ar    1  UNL1        0.1837
     28 N         143.4689  138.2627  167.9808 N.ar    1  UNL1       -0.2280
     29 C         142.6428  139.5147  167.9987 C.ar    1  UNL1        0.0786
     30 C         142.0445  140.1589  169.2140 C.3     1  UNL1        0.0538
     31 C         142.5201  140.0092  166.5879 C.ar    1  UNL1        0.0977
     32 C         140.0491  137.6573  163.6343 C.3     1  UNL1        0.2526
     33 O         141.5085  137.4329  163.8984 O.3     1  UNL1       -0.4683
@<TRIPOS>BOND
     1    32    33    1
     2    33    20    1
     3    20    21   ar
     4    21    22   ar
     5    22    18    1
     6    18     1    1
     7     1     2   ar
     8     2     3   ar
     9     3     4   ar
    10     4     5   ar
    11     5     6   ar
    12     6     7   ar
    13     7     8   ar
    14     8    11    1
    15    11    12   ar
    16    12    13   ar
    17    13    14   ar
    18    14    15    1
    19    14    16   ar
    20    16    17   ar
    21     8     9   ar
    22     9    10    1
    23    22    23   ar
    24    23    24   ar
    25    24    25   ar
    26    25    26    1
    27    26    27   ar
    28    27    28   ar
    29    28    29   ar
    30    29    30    1
    31    29    31   ar
    32    25    20   ar
    33    31    26   ar
    34     6     1   ar
    35    17    11   ar
    36     9     5   ar
    37    18    19    1
@<TRIPOS>MOLECULE
*****
 33 37 0 0 0
SMALL
GASTEIGER

@<TRIPOS>ATOM
      1 C         138.9624  139.6115  168.2094 C.ar    1  UNL1        0.0677
      2 C         138.4171  139.8522  169.5858 C.ar    1  UNL1        0.0162
      3 C         139.1759  140.7111  170.5535 C.ar    1  UNL1        0.0029
      4 C         140.4799  141.3294  170.1447 C.ar    1  UNL1        0.0188
      5 C         141.0252  141.0888  168.7682 C.ar    1  UNL1        0.0801
      6 C         140.2664  140.2298  167.8006 C.ar    1  UNL1        0.1120
      7 N         141.0474  140.1717  166.5212 N.ar    1  UNL1       -0.2256
      8 C         142.2889  140.9948  166.6982 C.ar    1  UNL1        0.1439
      9 N         142.2751  141.5615  168.0869 N.ar    1  UNL1       -0.3094
     10 C         143.3267  142.4458  168.6888 C.3     1  UNL1        0.1319
     11 C         143.3567  141.2128  165.6674 C.ar    1  UNL1        0.0343
     12 C         144.0547  140.0373  165.0504 C.ar    1  UNL1        0.0053
     13 C         145.1224  140.2553  164.0197 C.ar    1  UNL1        0.0297
     14 C         145.4921  141.6490  163.6060 C.ar    1  UNL1        0.1401
     15 F         146.5599  141.8670  162.5753 F       1  UNL1       -0.2042
     16 C         144.7940  142.8245  164.2230 C.ar    1  UNL1        0.0297
     17 C         143.7263  142.6064  165.2537 C.ar    1  UNL1        0.0053
     18 N         138.2036  138.7526  167.2416 N.pl3   1  UNL1       -0.3100
     19 H         137.6259  138.0282  167.5745 H       1  UNL1        0.1523
     20 C         138.0660  140.5749  163.7189 C.ar    1  UNL1        0.1742
     21 C         137.9445  140.3302  165.1938 C.ar    1  UNL1        0.0562
     22 C         138.3250  138.9973  165.7667 C.ar    1  UNL1        0.0710
     23 C         138.8270  137.9089  164.8647 C.ar    1  UNL1        0.1153
     24 N         138.9484  138.1536  163.3898 N.ar    1  UNL1       -0.2222
     25 C         138.5679  139.4867  162.8169 C.ar    1  UNL1        0.1835
     26 N         138.6894  139.7314  161.3420 N.ar    1  UNL1       -0.2692
     27 C         137.5579  139.7658  160.3578 C.ar    1  UNL1        0.1837
     28 N         138.1328  140.0403  158.9998 N.ar    1  UNL1       -0.2280
     29 C         139.6197  140.1755  159.1447 C.ar    1  UNL1        0.0786
     30 C         140.5919  140.4530  158.0366 C.3     1  UNL1        0.0538
     31 C         139.9636  139.9846  160.5922 C.ar    1  UNL1        0.0977
     32 C         138.7194  142.9850  163.0014 C.3     1  UNL1        0.2526
     33 O         137.6854  141.9080  163.1459 O.3     1  UNL1       -0.4683
@<TRIPOS>BOND
     1    32    33    1
     2    33    20    1
     3    20    21   ar
     4    21    22   ar
     5    22    18    1
     6    18     1    1
     7     1     2   ar
     8     2     3   ar
     9     3     4   ar
    10     4     5   ar
    11     5     6   ar
    12     6     7   ar
    13     7     8   ar
    14     8    11    1
    15    11    12   ar
    16    12    13   ar
    17    13    14   ar
    18    14    15    1
    19    14    16   ar
    20    16    17   ar
    21     8     9   ar
    22     9    10    1
    23    22    23   ar
    24    23    24   ar
    25    24    25   ar
    26    25    26    1
    27    26    27   ar
    28    27    28   ar
    29    28    29   ar
    30    29    30    1
    31    29    31   ar
    32    25    20   ar
    33    31    26   ar
    34     6     1   ar
    35    17    11   ar
    36     9     5   ar
    37    18    19    1
@<TRIPOS>MOLECULE
*****
 33 37 0 0 0
SMALL
GASTEIGER

@<TRIPOS>ATOM
      1 C         143.3713  141.4978  161.8213 C.ar    1  UNL1        0.0677
      2 C         144.8062  141.9340  161.8484 C.ar    1  UNL1        0.0162
      3 C         145.6184  141.7634  163.0978 C.ar    1  UNL1        0.0029
      4 C         144.9958  141.1566  164.3201 C.ar    1  UNL1        0.0188
      5 C         143.5609  140.7204  164.2931 C.ar    1  UNL1        0.0801
      6 C         142.7486  140.8910  163.0436 C.ar    1  UNL1        0.1120
      7 N         141.3677  140.3711  163.3138 N.ar    1  UNL1       -0.2256
      8 C         141.3266  139.8792  164.7303 C.ar    1  UNL1        0.1439
      9 N         142.6821  140.0951  165.3355 N.ar    1  UNL1       -0.3094
     10 C         143.0875  139.7468  166.7370 C.3     1  UNL1        0.1319
     11 C         140.1387  139.2770  165.4204 C.ar    1  UNL1        0.0343
     12 C         139.6041  137.9492  164.9719 C.ar    1  UNL1        0.0053
     13 C         138.4162  137.3472  165.6620 C.ar    1  UNL1        0.0297
     14 C         137.7628  138.0729  166.8007 C.ar    1  UNL1        0.1401
     15 F         136.5749  137.4707  167.4908 F       1  UNL1       -0.2042
     16 C         138.2974  139.4006  167.2492 C.ar    1  UNL1        0.0297
     17 C         139.4853  140.0027  166.5590 C.ar    1  UNL1        0.0053
     18 N         142.5590  141.6684  160.5718 N.pl3   1  UNL1       -0.3100
     19 H         142.1599  142.5430  160.3597 H       1  UNL1        0.1523
     20 C         143.1089  139.1077  157.5902 C.ar    1  UNL1        0.1742
     21 C         143.3132  140.2697  158.5164 C.ar    1  UNL1        0.0562
     22 C         142.3547  140.5063  159.6456 C.ar    1  UNL1        0.0710
     23 C         141.1918  139.5808  159.8487 C.ar    1  UNL1        0.1153
     24 N         140.9875  138.4187  158.9224 N.ar    1  UNL1       -0.2222
     25 C         141.9461  138.1822  157.7932 C.ar    1  UNL1        0.1835
     26 N         141.7418  137.0201  156.8670 N.ar    1  UNL1       -0.2692
     27 C         140.6958  136.9191  155.7966 C.ar    1  UNL1        0.1837
     28 N         140.8552  135.5916  155.1166 N.ar    1  UNL1       -0.2280
     29 C         141.9996  134.8722  155.7667 C.ar    1  UNL1        0.0786
     30 C         142.5071  133.5092  155.3995 C.3     1  UNL1        0.0538
     31 C         142.5476  135.7551  156.8485 C.ar    1  UNL1        0.0977
     32 C         144.3301  139.9571  155.4601 C.3     1  UNL1        0.2526
     33 O         144.0675  138.8711  156.4609 O.3     1  UNL1       -0.4683
@<TRIPOS>BOND
     1    32    33    1
     2    33    20    1
     3    20    21   ar
     4    21    22   ar
     5    22    18    1
     6    18     1    1
     7     1     2   ar
     8     2     3   ar
     9     3     4   ar
    10     4     5   ar
    11     5     6   ar
    12     6     7   ar
    13     7     8   ar
    14     8    11    1
    15    11    12   ar
    16    12    13   ar
    17    13    14   ar
    18    14    15    1
    19    14    16   ar
    20    16    17   ar
    21     8     9   ar
    22     9    10    1
    23    22    23   ar
    24    23    24   ar
    25    24    25   ar
    26    25    26    1
    27    26    27   ar
    28    27    28   ar
    29    28    29   ar
    30    29    30    1
    31    29    31   ar
    32    25    20   ar
    33    31    26   ar
    34     6     1   ar
    35    17    11   ar
    36     9     5   ar
    37    18    19    1
@<TRIPOS>MOLECULE
*****
 33 37 0 0 0
SMALL
GASTEIGER

@<TRIPOS>ATOM
      1 C         143.5267  140.8482  158.8849 C.ar    1  UNL1        0.0677
      2 C         144.1907  141.1608  157.5767 C.ar    1  UNL1        0.0162
      3 C         143.9163  142.4655  156.8893 C.ar    1  UNL1        0.0029
      4 C         142.9779  143.4575  157.5101 C.ar    1  UNL1        0.0188
      5 C         142.3139  143.1449  158.8183 C.ar    1  UNL1        0.0801
      6 C         142.5884  141.8403  159.5057 C.ar    1  UNL1        0.1120
      7 N         141.7933  141.8101  160.7774 N.ar    1  UNL1       -0.2256
      8 C         141.0276  143.0961  160.8758 C.ar    1  UNL1        0.1439
      9 N         141.3493  143.9211  159.6651 N.ar    1  UNL1       -0.3094
     10 C         140.8025  145.2831  159.3554 C.3     1  UNL1        0.1319
     11 C         140.1024  143.4884  161.9896 C.ar    1  UNL1        0.0343
     12 C         140.6305  144.2462  163.1715 C.ar    1  UNL1        0.0053
     13 C         139.7054  144.6384  164.2851 C.ar    1  UNL1        0.0297
     14 C         138.2522  144.2729  164.2169 C.ar    1  UNL1        0.1401
     15 F         137.3271  144.6652  165.3306 F       1  UNL1       -0.2042
     16 C         137.7241  143.5151  163.0350 C.ar    1  UNL1        0.0297
     17 C         138.6493  143.1229  161.9213 C.ar    1  UNL1        0.0053
     18 N         143.8011  139.5435  159.5724 N.pl3   1  UNL1       -0.3100
     19 H         144.0641  138.7549  159.0449 H       1  UNL1        0.1523
     20 C         144.3962  140.2014  163.4406 C.ar    1  UNL1        0.1742
     21 C         144.5224  140.3045  161.9495 C.ar    1  UNL1        0.0562
     22 C         143.6749  139.4404  161.0635 C.ar    1  UNL1        0.0710
     23 C         142.7010  138.4732  161.6686 C.ar    1  UNL1        0.1153
     24 N         142.5748  138.3701  163.1598 N.ar    1  UNL1       -0.2222
     25 C         143.4224  139.2342  164.0457 C.ar    1  UNL1        0.1835
     26 N         143.2961  139.1311  165.5369 N.ar    1  UNL1       -0.2692
     27 C         143.8500  138.0324  166.3947 C.ar    1  UNL1        0.1837
     28 N         143.4900  138.3308  167.8200 N.ar    1  UNL1       -0.2280
     29 C         142.7136  139.6141  167.8430 C.ar    1  UNL1        0.0786
     30 C         142.1552  140.2849  169.0628 C.3     1  UNL1        0.0538
     31 C         142.5938  140.1086  166.4319 C.ar    1  UNL1        0.0977
     32 C         144.9682  142.5366  164.4253 C.3     1  UNL1        0.2526
     33 O         145.2438  141.0655  164.3266 O.3     1  UNL1       -0.4683
@<TRIPOS>BOND
     1    32    33    1
     2    33    20    1
     3    20    21   ar
     4    21    22   ar
     5    22    18    1
     6    18     1    1
     7     1     2   ar
     8     2     3   ar
     9     3     4   ar
    10     4     5   ar
    11     5     6   ar
    12     6     7   ar
    13     7     8   ar
    14     8    11    1
    15    11    12   ar
    16    12    13   ar
    17    13    14   ar
    18    14    15    1
    19    14    16   ar
    20    16    17   ar
    21     8     9   ar
    22     9    10    1
    23    22    23   ar
    24    23    24   ar
    25    24    25   ar
    26    25    26    1
    27    26    27   ar
    28    27    28   ar
    29    28    29   ar
    30    29    30    1
    31    29    31   ar
    32    25    20   ar
    33    31    26   ar
    34     6     1   ar
    35    17    11   ar
    36     9     5   ar
    37    18    19    1
@<TRIPOS>MOLECULE
*****
 33 37 0 0 0
SMALL
GASTEIGER

@<TRIPOS>ATOM
      1 C         141.0485  139.0804  162.9663 C.ar    1  UNL1        0.0677
      2 C         140.0490  138.1254  162.3843 C.ar    1  UNL1        0.0162
      3 C         138.9008  137.6406  163.2190 C.ar    1  UNL1        0.0029
      4 C         138.7523  138.1108  164.6356 C.ar    1  UNL1        0.0188
      5 C         139.7518  139.0658  165.2176 C.ar    1  UNL1        0.0801
      6 C         140.9000  139.5507  164.3829 C.ar    1  UNL1        0.1120
      7 N         141.7221  140.4831  165.2223 N.ar    1  UNL1       -0.2256
      8 C         141.0821  140.5746  166.5758 C.ar    1  UNL1        0.1439
      9 N         139.8644  139.6986  166.5729 N.ar    1  UNL1       -0.3094
     10 C         138.9242  139.4918  167.7232 C.3     1  UNL1        0.1319
     11 C         141.5734  141.3975  167.7298 C.ar    1  UNL1        0.0343
     12 C         140.7010  142.4702  168.3112 C.ar    1  UNL1        0.0053
     13 C         141.1923  143.2931  169.4650 C.ar    1  UNL1        0.0297
     14 C         142.5561  143.0432  170.0375 C.ar    1  UNL1        0.1401
     15 F         143.0474  143.8661  171.1914 F       1  UNL1       -0.2042
     16 C         143.4285  141.9704  169.4561 C.ar    1  UNL1        0.0297
     17 C         142.9371  141.1476  168.3022 C.ar    1  UNL1        0.0053
     18 N         142.1967  139.5653  162.1316 N.pl3   1  UNL1       -0.3100
     19 H         143.0756  139.1272  162.2014 H       1  UNL1        0.1523
     20 C         141.9313  143.2778  160.7545 C.ar    1  UNL1        0.1742
     21 C         142.1222  142.1254  161.6954 C.ar    1  UNL1        0.0562
     22 C         142.0058  140.7177  161.1906 C.ar    1  UNL1        0.0710
     23 C         141.6984  140.4625  159.7447 C.ar    1  UNL1        0.1153
     24 N         141.5075  141.6149  158.8038 N.ar    1  UNL1       -0.2222
     25 C         141.6240  143.0226  159.3087 C.ar    1  UNL1        0.1835
     26 N         141.4331  144.1751  158.3677 N.ar    1  UNL1       -0.2692
     27 C         142.5005  144.8172  157.5321 C.ar    1  UNL1        0.1837
     28 N         141.8683  145.9267  156.7450 N.ar    1  UNL1       -0.2280
     29 C         140.4102  145.9703  157.0943 C.ar    1  UNL1        0.0786
     30 C         139.3987  146.9283  156.5383 C.3     1  UNL1        0.0538
     31 C         140.1412  144.8878  158.0971 C.ar    1  UNL1        0.0977
     32 C         140.8496  145.3751  161.8415 C.3     1  UNL1        0.2526
     33 O         142.0478  144.6856  161.2593 O.3     1  UNL1       -0.4683
@<TRIPOS>BOND
     1    32    33    1
     2    33    20    1
     3    20    21   ar
     4    21    22   ar
     5    22    18    1
     6    18     1    1
     7     1     2   ar
     8     2     3   ar
     9     3     4   ar
    10     4     5   ar
    11     5     6   ar
    12     6     7   ar
    13     7     8   ar
    14     8    11    1
    15    11    12   ar
    16    12    13   ar
    17    13    14   ar
    18    14    15    1
    19    14    16   ar
    20    16    17   ar
    21     8     9   ar
    22     9    10    1
    23    22    23   ar
    24    23    24   ar
    25    24    25   ar
    26    25    26    1
    27    26    27   ar
    28    27    28   ar
    29    28    29   ar
    30    29    30    1
    31    29    31   ar
    32    25    20   ar
    33    31    26   ar
    34     6     1   ar
    35    17    11   ar
    36     9     5   ar
    37    18    19    1
