@<TRIPOS>MOLECULE
*****
 31 34 0 0 0
SMALL
GASTEIGER

@<TRIPOS>ATOM
      1 C         141.9127  140.8858  168.6846 C.3     1  UNL1        0.1312
      2 C         141.9201  141.6083  167.3702 C.3     1  UNL1        0.1020
      3 N         140.7633  141.4607  166.4266 N.3     1  UNL1       -0.2706
      4 C         139.5993  140.5904  166.7976 C.3     1  UNL1        0.0917
      5 C         139.5920  139.8679  168.1120 C.3     1  UNL1        0.1583
      6 O         140.7487  140.0155  169.0555 O.3     1  UNL1       -0.3534
      7 C         140.7707  142.1833  165.1121 C.3     1  UNL1        0.0610
      8 C         141.6124  141.6727  163.9804 C.3     1  UNL1        0.0375
      9 C         141.6198  142.3953  162.6659 C.3     1  UNL1        0.0950
     10 N         140.7855  143.6285  162.4832 N.pl3   1  UNL1       -0.2785
     11 C         139.9439  144.1390  163.6150 C.3     1  UNL1        0.0950
     12 C         139.9365  143.4164  164.9295 C.3     1  UNL1        0.0375
     13 C         140.7929  144.3510  161.1687 C.ar    1  UNL1        0.2163
     14 N         141.9944  144.5984  160.3054 N.ar    1  UNL1       -0.1804
     15 C         141.5442  145.3533  159.0899 C.ar    1  UNL1        0.2331
     16 N         142.4200  145.8090  157.9606 N.pl3   1  UNL1       -0.3262
     17 N         140.0645  145.5725  159.2020 N.ar    1  UNL1       -0.1354
     18 N         139.6002  144.9530  160.4868 N.ar    1  UNL1       -0.2450
     19 H         143.3853  145.6164  157.9776 H       1  UNL1        0.1452
     20 H         142.0294  146.3008  157.2024 H       1  UNL1        0.1452
     21 H         138.6751  144.9433  160.8234 H       1  UNL1        0.1919
     22 C         143.7935  142.3433  169.7278 C.3     1  UNL1        0.0026
     23 C         143.0694  141.0335  169.6281 C.3     1  UNL1        0.0310
     24 C         138.4426  140.4428  165.8540 C.3     1  UNL1        0.0448
     25 C         138.6488  139.8160  164.5070 C.ar    1  UNL1       -0.0207
     26 C         139.4634  138.5629  164.3796 C.ar    1  UNL1       -0.0034
     27 C         139.6697  137.9361  163.0325 C.ar    1  UNL1        0.0111
     28 C         139.0613  138.5624  161.8128 C.ar    1  UNL1        0.0577
     29 CL        139.2675  137.9356  160.4657 Cl      1  UNL1       -0.0822
     30 C         138.2467  139.8155  161.9402 C.ar    1  UNL1        0.0111
     31 C         138.0404  140.4423  163.2873 C.ar    1  UNL1       -0.0034
@<TRIPOS>BOND
     1    22    23    1
     2     1    23    1
     3     1     2    1
     4     2     3    1
     5     3     7    1
     6     7     8    1
     7     8     9    1
     8     9    10    1
     9    10    13    1
    10    13    14   ar
    11    14    15   ar
    12    15    16    1
    13    15    17   ar
    14    17    18   ar
    15    10    11    1
    16    11    12    1
    17     3     4    1
    18     4    24    1
    19    24    25    1
    20    25    26   ar
    21    26    27   ar
    22    27    28   ar
    23    28    29    1
    24    28    30   ar
    25    30    31   ar
    26     4     5    1
    27     5     6    1
    28     6     1    1
    29    12     7    1
    30    31    25   ar
    31    18    13   ar
    32    16    19    1
    33    16    20    1
    34    18    21    1
@<TRIPOS>MOLECULE
*****
 31 34 0 0 0
SMALL
GASTEIGER

@<TRIPOS>ATOM
      1 C         142.8766  141.3525  168.6654 C.3     1  UNL1        0.1312
      2 C         142.7769  142.0259  167.3288 C.3     1  UNL1        0.1020
      3 N         142.7906  141.2059  166.0729 N.3     1  UNL1       -0.2706
      4 C         142.9040  139.7124  166.1536 C.3     1  UNL1        0.0917
      5 C         143.0038  139.0389  167.4901 C.3     1  UNL1        0.1583
      6 O         142.9901  139.8590  168.7461 O.3     1  UNL1       -0.3534
      7 C         142.6908  141.8794  164.7363 C.3     1  UNL1        0.0610
      8 C         141.3500  142.2821  164.1976 C.3     1  UNL1        0.0375
      9 C         141.2502  142.9556  162.8611 C.3     1  UNL1        0.0950
     10 N         142.4912  143.2264  162.0631 N.pl3   1  UNL1       -0.2785
     11 C         143.8320  142.8237  162.6018 C.3     1  UNL1        0.0950
     12 C         143.9317  142.1502  163.9384 C.3     1  UNL1        0.0375
     13 C         142.3914  143.8999  160.7266 C.ar    1  UNL1        0.2163
     14 N         142.9675  143.3920  159.4381 N.ar    1  UNL1       -0.1804
     15 C         142.6301  144.3777  158.3590 C.ar    1  UNL1        0.2331
     16 N         143.0106  144.2659  156.9124 N.pl3   1  UNL1       -0.3262
     17 N         141.8454  145.4949  158.9805 N.ar    1  UNL1       -0.1354
     18 N         141.6979  145.1996  160.4437 N.ar    1  UNL1       -0.2450
     19 H         143.5296  143.4905  156.5984 H       1  UNL1        0.1452
     20 H         142.7413  144.9679  156.2769 H       1  UNL1        0.1452
     21 H         141.2284  145.7603  161.1028 H       1  UNL1        0.1919
     22 C         141.8275  143.2417  170.1077 C.3     1  UNL1        0.0026
     23 C         142.8629  142.1725  169.9213 C.3     1  UNL1        0.0310
     24 C         142.9177  138.8923  164.8976 C.3     1  UNL1        0.0448
     25 C         141.6405  138.6403  164.1525 C.ar    1  UNL1       -0.0207
     26 C         141.6810  138.2593  162.7022 C.ar    1  UNL1       -0.0034
     27 C         140.4038  138.0073  161.9571 C.ar    1  UNL1        0.0111
     28 C         139.0861  138.1362  162.6622 C.ar    1  UNL1        0.0577
     29 CL        137.8089  137.8841  161.9170 Cl      1  UNL1       -0.0822
     30 C         139.0457  138.5171  164.1124 C.ar    1  UNL1        0.0111
     31 C         140.3229  138.7692  164.8576 C.ar    1  UNL1       -0.0034
@<TRIPOS>BOND
     1    22    23    1
     2     1    23    1
     3     1     2    1
     4     2     3    1
     5     3     7    1
     6     7     8    1
     7     8     9    1
     8     9    10    1
     9    10    13    1
    10    13    14   ar
    11    14    15   ar
    12    15    16    1
    13    15    17   ar
    14    17    18   ar
    15    10    11    1
    16    11    12    1
    17     3     4    1
    18     4    24    1
    19    24    25    1
    20    25    26   ar
    21    26    27   ar
    22    27    28   ar
    23    28    29    1
    24    28    30   ar
    25    30    31   ar
    26     4     5    1
    27     5     6    1
    28     6     1    1
    29    12     7    1
    30    31    25   ar
    31    18    13   ar
    32    16    19    1
    33    16    20    1
    34    18    21    1
@<TRIPOS>MOLECULE
*****
 31 34 0 0 0
SMALL
GASTEIGER

@<TRIPOS>ATOM
      1 C         140.3754  141.8965  168.4137 C.3     1  UNL1        0.1312
      2 C         140.5186  142.5107  167.0528 C.3     1  UNL1        0.1020
      3 N         140.0270  141.7744  165.8420 N.3     1  UNL1       -0.2706
      4 C         139.3921  140.4237  165.9922 C.3     1  UNL1        0.0917
      5 C         139.2488  139.8095  167.3531 C.3     1  UNL1        0.1583
      6 O         139.7404  140.5459  168.5639 O.3     1  UNL1       -0.3534
      7 C         140.1703  142.3887  164.4811 C.3     1  UNL1        0.0610
      8 C         141.4575  142.2439  163.7246 C.3     1  UNL1        0.0375
      9 C         141.6008  142.8581  162.3637 C.3     1  UNL1        0.0950
     10 N         140.4569  143.6173  161.7592 N.pl3   1  UNL1       -0.2785
     11 C         139.1698  143.7621  162.5157 C.3     1  UNL1        0.0950
     12 C         139.0265  143.1478  163.8766 C.3     1  UNL1        0.0375
     13 C         140.6003  144.2315  160.3983 C.ar    1  UNL1        0.2163
     14 N         141.7793  145.0169  159.9052 N.ar    1  UNL1       -0.1804
     15 C         141.4975  145.4391  158.4937 C.ar    1  UNL1        0.2331
     16 N         142.4089  146.2443  157.6157 N.pl3   1  UNL1       -0.3262
     17 N         140.1443  144.9146  158.1144 N.ar    1  UNL1       -0.1354
     18 N         139.5898  144.1683  159.2915 N.ar    1  UNL1       -0.2450
     19 H         143.2823  146.5445  157.9566 H       1  UNL1        0.1452
     20 H         142.1336  146.4726  156.6984 H       1  UNL1        0.1452
     21 H         138.7160  143.7164  159.3308 H       1  UNL1        0.1919
     22 C         140.3632  144.0149  169.9177 C.3     1  UNL1        0.0026
     23 C         140.8670  142.6329  169.6245 C.3     1  UNL1        0.0310
     24 C         138.9004  139.6873  164.7814 C.3     1  UNL1        0.0448
     25 C         139.8814  139.1268  163.7948 C.ar    1  UNL1       -0.0207
     26 C         141.1652  138.5186  164.2765 C.ar    1  UNL1       -0.0034
     27 C         142.1462  137.9581  163.2899 C.ar    1  UNL1        0.0111
     28 C         141.8435  138.0058  161.8215 C.ar    1  UNL1        0.0577
     29 CL        142.8246  137.4453  160.8349 Cl      1  UNL1       -0.0822
     30 C         140.5598  138.6140  161.3398 C.ar    1  UNL1        0.0111
     31 C         139.5787  139.1745  162.3264 C.ar    1  UNL1       -0.0034
@<TRIPOS>BOND
     1    22    23    1
     2     1    23    1
     3     1     2    1
     4     2     3    1
     5     3     7    1
     6     7     8    1
     7     8     9    1
     8     9    10    1
     9    10    13    1
    10    13    14   ar
    11    14    15   ar
    12    15    16    1
    13    15    17   ar
    14    17    18   ar
    15    10    11    1
    16    11    12    1
    17     3     4    1
    18     4    24    1
    19    24    25    1
    20    25    26   ar
    21    26    27   ar
    22    27    28   ar
    23    28    29    1
    24    28    30   ar
    25    30    31   ar
    26     4     5    1
    27     5     6    1
    28     6     1    1
    29    12     7    1
    30    31    25   ar
    31    18    13   ar
    32    16    19    1
    33    16    20    1
    34    18    21    1
@<TRIPOS>MOLECULE
*****
 31 34 0 0 0
SMALL
GASTEIGER

@<TRIPOS>ATOM
      1 C         140.4208  140.3723  168.1749 C.3     1  UNL1        0.1312
      2 C         140.3087  141.1757  166.9132 C.3     1  UNL1        0.1020
      3 N         141.4171  141.1442  165.9030 N.3     1  UNL1       -0.2706
      4 C         142.6375  140.3092  166.1544 C.3     1  UNL1        0.0917
      5 C         142.7496  139.5058  167.4161 C.3     1  UNL1        0.1583
      6 O         141.6412  139.5373  168.4263 O.3     1  UNL1       -0.3534
      7 C         141.3050  141.9477  164.6413 C.3     1  UNL1        0.0610
      8 C         141.9999  143.2725  164.5315 C.3     1  UNL1        0.0375
      9 C         141.8878  144.0760  163.2699 C.3     1  UNL1        0.0950
     10 N         141.0807  143.5547  162.1179 N.pl3   1  UNL1       -0.2785
     11 C         140.3858  142.2299  162.2276 C.3     1  UNL1        0.0950
     12 C         140.4980  141.4264  163.4893 C.3     1  UNL1        0.0375
     13 C         140.9686  144.3582  160.8563 C.ar    1  UNL1        0.2163
     14 N         142.1070  144.7784  159.9746 N.ar    1  UNL1       -0.1804
     15 C         141.5405  145.5625  158.8282 C.ar    1  UNL1        0.2331
     16 N         142.3248  146.1748  157.7056 N.pl3   1  UNL1       -0.3262
     17 N         140.0518  145.6269  159.0013 N.ar    1  UNL1       -0.1354
     18 N         139.6985  144.8826  160.2548 N.ar    1  UNL1       -0.2450
     19 H         143.3041  146.0776  157.6791 H       1  UNL1        0.1452
     20 H         141.8602  146.6737  156.9954 H       1  UNL1        0.1452
     21 H         138.7920  144.7597  160.6188 H       1  UNL1        0.1919
     22 C         139.3390  141.4109  170.2964 C.3     1  UNL1        0.0026
     23 C         139.3124  140.4038  169.1851 C.3     1  UNL1        0.0310
     24 C         143.7459  140.2776  165.1442 C.3     1  UNL1        0.0448
     25 C         143.5464  139.5758  163.8337 C.ar    1  UNL1       -0.0207
     26 C         142.5332  138.4757  163.7186 C.ar    1  UNL1       -0.0034
     27 C         142.3337  137.7738  162.4081 C.ar    1  UNL1        0.0111
     28 C         143.1474  138.1721  161.2125 C.ar    1  UNL1        0.0577
     29 CL        142.9479  137.4702  159.9019 Cl      1  UNL1       -0.0822
     30 C         144.1606  139.2722  161.3275 C.ar    1  UNL1        0.0111
     31 C         144.3601  139.9741  162.6381 C.ar    1  UNL1       -0.0034
@<TRIPOS>BOND
     1    22    23    1
     2     1    23    1
     3     1     2    1
     4     2     3    1
     5     3     7    1
     6     7     8    1
     7     8     9    1
     8     9    10    1
     9    10    13    1
    10    13    14   ar
    11    14    15   ar
    12    15    16    1
    13    15    17   ar
    14    17    18   ar
    15    10    11    1
    16    11    12    1
    17     3     4    1
    18     4    24    1
    19    24    25    1
    20    25    26   ar
    21    26    27   ar
    22    27    28   ar
    23    28    29    1
    24    28    30   ar
    25    30    31   ar
    26     4     5    1
    27     5     6    1
    28     6     1    1
    29    12     7    1
    30    31    25   ar
    31    18    13   ar
    32    16    19    1
    33    16    20    1
    34    18    21    1
@<TRIPOS>MOLECULE
*****
 31 34 0 0 0
SMALL
GASTEIGER

@<TRIPOS>ATOM
      1 C         138.3026  139.2202  167.1307 C.3     1  UNL1        0.1312
      2 C         138.5196  139.9306  165.8275 C.3     1  UNL1        0.1020
      3 N         139.5780  140.9877  165.7167 N.3     1  UNL1       -0.2706
      4 C         140.4195  141.3344  166.9090 C.3     1  UNL1        0.0917
      5 C         140.2026  140.6239  168.2121 C.3     1  UNL1        0.1583
      6 O         139.1442  139.5668  168.3230 O.3     1  UNL1       -0.3534
      7 C         139.7949  141.6981  164.4134 C.3     1  UNL1        0.0610
      8 C         139.2517  143.0820  164.2142 C.3     1  UNL1        0.0375
      9 C         139.4685  143.7924  162.9111 C.3     1  UNL1        0.0950
     10 N         140.2286  143.1189  161.8071 N.pl3   1  UNL1       -0.2785
     11 C         140.7718  141.7350  162.0063 C.3     1  UNL1        0.0950
     12 C         140.5549  141.0246  163.3095 C.3     1  UNL1        0.0375
     13 C         140.4454  143.8294  160.5039 C.ar    1  UNL1        0.2163
     14 N         141.6467  144.6488  160.1357 N.ar    1  UNL1       -0.1804
     15 C         141.4428  145.1709  158.7444 C.ar    1  UNL1        0.2331
     16 N         142.3984  146.0377  157.9791 N.pl3   1  UNL1       -0.3262
     17 N         140.1155  144.6743  158.2527 N.ar    1  UNL1       -0.1354
     18 N         139.4991  143.8451  159.3402 N.ar    1  UNL1       -0.2450
     19 H         143.2499  146.3131  158.3894 H       1  UNL1        0.1452
     20 H         142.1741  146.3310  157.0665 H       1  UNL1        0.1452
     21 H         138.6267  143.3910  159.2976 H       1  UNL1        0.1919
     22 C         137.4446  136.8293  166.5851 C.3     1  UNL1        0.0026
     23 C         137.2442  138.1631  167.2415 C.3     1  UNL1        0.0310
     24 C         141.4779  142.3914  166.7981 C.3     1  UNL1        0.0448
     25 C         142.5994  142.2297  165.8153 C.ar    1  UNL1       -0.0207
     26 C         143.0623  143.4045  165.0055 C.ar    1  UNL1       -0.0034
     27 C         144.1838  143.2428  164.0227 C.ar    1  UNL1        0.0111
     28 C         144.8425  141.9063  163.8495 C.ar    1  UNL1        0.0577
     29 CL        145.9641  141.7446  162.8666 Cl      1  UNL1       -0.0822
     30 C         144.3796  140.7315  164.6592 C.ar    1  UNL1        0.0111
     31 C         143.2581  140.8932  165.6421 C.ar    1  UNL1       -0.0034
@<TRIPOS>BOND
     1    22    23    1
     2     1    23    1
     3     1     2    1
     4     2     3    1
     5     3     7    1
     6     7     8    1
     7     8     9    1
     8     9    10    1
     9    10    13    1
    10    13    14   ar
    11    14    15   ar
    12    15    16    1
    13    15    17   ar
    14    17    18   ar
    15    10    11    1
    16    11    12    1
    17     3     4    1
    18     4    24    1
    19    24    25    1
    20    25    26   ar
    21    26    27   ar
    22    27    28   ar
    23    28    29    1
    24    28    30   ar
    25    30    31   ar
    26     4     5    1
    27     5     6    1
    28     6     1    1
    29    12     7    1
    30    31    25   ar
    31    18    13   ar
    32    16    19    1
    33    16    20    1
    34    18    21    1
@<TRIPOS>MOLECULE
*****
 31 34 0 0 0
SMALL
GASTEIGER

@<TRIPOS>ATOM
      1 C         139.2023  143.6335  157.8202 C.3     1  UNL1        0.1312
      2 C         138.9736  142.8506  159.0790 C.3     1  UNL1        0.1020
      3 N         139.5823  143.3117  160.3701 N.3     1  UNL1       -0.2706
      4 C         140.4197  144.5558  160.4023 C.3     1  UNL1        0.0917
      5 C         140.6484  145.3387  159.1435 C.3     1  UNL1        0.1583
      6 O         140.0397  144.8776  157.8524 O.3     1  UNL1       -0.3534
      7 C         139.3536  142.5287  161.6289 C.3     1  UNL1        0.0610
      8 C         138.2496  142.9206  162.5658 C.3     1  UNL1        0.0375
      9 C         138.0208  142.1377  163.8246 C.3     1  UNL1        0.0950
     10 N         138.8961  140.9627  164.1466 N.pl3   1  UNL1       -0.2785
     11 C         140.0001  140.5708  163.2098 C.3     1  UNL1        0.0950
     12 C         140.2288  141.3539  161.9509 C.3     1  UNL1        0.0375
     13 C         138.6673  140.1798  165.4054 C.ar    1  UNL1        0.2163
     14 N         137.6933  139.0522  165.5776 N.ar    1  UNL1       -0.1804
     15 C         137.7964  138.5625  166.9917 C.ar    1  UNL1        0.2331
     16 N         137.0013  137.4441  167.5976 N.pl3   1  UNL1       -0.3262
     17 N         138.8342  139.3875  167.6934 N.ar    1  UNL1       -0.1354
     18 N         139.3725  140.3870  166.7130 N.ar    1  UNL1       -0.2450
     19 H         136.3396  136.9594  167.0532 H       1  UNL1        0.1452
     20 H         137.1412  137.1949  168.5397 H       1  UNL1        0.1452
     21 H         140.0667  141.0608  166.8957 H       1  UNL1        0.1919
     22 C         137.2168  142.5773  156.5194 C.3     1  UNL1        0.0026
     23 C         138.5936  143.1724  156.5291 C.3     1  UNL1        0.0310
     24 C         141.0283  145.0169  161.6934 C.3     1  UNL1        0.0448
     25 C         142.1998  144.2824  162.2748 C.ar    1  UNL1       -0.0207
     26 C         142.3905  144.2319  163.7618 C.ar    1  UNL1       -0.0034
     27 C         143.5620  143.4974  164.3433 C.ar    1  UNL1        0.0111
     28 C         144.5428  142.8133  163.4377 C.ar    1  UNL1        0.0577
     29 CL        145.7144  142.0788  164.0192 Cl      1  UNL1       -0.0822
     30 C         144.3522  142.8638  161.9508 C.ar    1  UNL1        0.0111
     31 C         143.1807  143.5984  161.3693 C.ar    1  UNL1       -0.0034
@<TRIPOS>BOND
     1    22    23    1
     2     1    23    1
     3     1     2    1
     4     2     3    1
     5     3     7    1
     6     7     8    1
     7     8     9    1
     8     9    10    1
     9    10    13    1
    10    13    14   ar
    11    14    15   ar
    12    15    16    1
    13    15    17   ar
    14    17    18   ar
    15    10    11    1
    16    11    12    1
    17     3     4    1
    18     4    24    1
    19    24    25    1
    20    25    26   ar
    21    26    27   ar
    22    27    28   ar
    23    28    29    1
    24    28    30   ar
    25    30    31   ar
    26     4     5    1
    27     5     6    1
    28     6     1    1
    29    12     7    1
    30    31    25   ar
    31    18    13   ar
    32    16    19    1
    33    16    20    1
    34    18    21    1
@<TRIPOS>MOLECULE
*****
 31 34 0 0 0
SMALL
GASTEIGER

@<TRIPOS>ATOM
      1 C         138.2874  139.8701  159.6900 C.3     1  UNL1        0.1312
      2 C         138.2895  140.0602  161.1779 C.3     1  UNL1        0.1020
      3 N         139.3794  139.4525  162.0102 N.3     1  UNL1       -0.2706
      4 C         140.4674  138.6547  161.3546 C.3     1  UNL1        0.0917
      5 C         140.4653  138.4645  159.8667 C.3     1  UNL1        0.1583
      6 O         139.3753  139.0722  159.0345 O.3     1  UNL1       -0.3534
      7 C         139.3815  139.6427  163.4981 C.3     1  UNL1        0.0610
      8 C         139.9851  140.8792  164.0953 C.3     1  UNL1        0.0375
      9 C         139.9871  141.0695  165.5832 C.3     1  UNL1        0.0950
     10 N         139.3855  140.0231  166.4739 N.pl3   1  UNL1       -0.2785
     11 C         138.7819  138.7866  165.8767 C.3     1  UNL1        0.0950
     12 C         138.7798  138.5964  164.3888 C.3     1  UNL1        0.0375
     13 C         139.3876  140.2134  167.9618 C.ar    1  UNL1        0.2163
     14 N         140.2898  141.1313  168.7320 N.ar    1  UNL1       -0.1804
     15 C         139.9476  141.0043  170.1869 C.ar    1  UNL1        0.2331
     16 N         140.6040  141.7439  171.3149 N.pl3   1  UNL1       -0.3262
     17 N         138.8338  140.0079  170.3159 N.ar    1  UNL1       -0.1354
     18 N         138.4877  139.5191  168.9407 N.ar    1  UNL1       -0.2450
     19 H         141.3309  142.3812  171.1286 H       1  UNL1        0.1452
     20 H         140.3079  141.5920  172.2414 H       1  UNL1        0.1452
     21 H         137.7920  138.8585  168.7194 H       1  UNL1        0.1919
     22 C         137.5086  141.0195  157.4941 C.3     1  UNL1        0.0026
     23 C         137.1974  140.4777  158.8578 C.3     1  UNL1        0.0310
     24 C         141.5573  138.0470  162.1869 C.3     1  UNL1        0.0448
     25 C         142.6889  138.8997  162.6791 C.ar    1  UNL1       -0.0207
     26 C         143.0640  138.8828  164.1314 C.ar    1  UNL1       -0.0034
     27 C         144.1956  139.7355  164.6237 C.ar    1  UNL1        0.0111
     28 C         144.9522  140.6050  163.6638 C.ar    1  UNL1        0.0577
     29 CL        146.0839  141.4577  164.1561 Cl      1  UNL1       -0.0822
     30 C         144.5772  140.6219  162.2116 C.ar    1  UNL1        0.0111
     31 C         143.4455  139.7692  161.7192 C.ar    1  UNL1       -0.0034
@<TRIPOS>BOND
     1    22    23    1
     2     1    23    1
     3     1     2    1
     4     2     3    1
     5     3     7    1
     6     7     8    1
     7     8     9    1
     8     9    10    1
     9    10    13    1
    10    13    14   ar
    11    14    15   ar
    12    15    16    1
    13    15    17   ar
    14    17    18   ar
    15    10    11    1
    16    11    12    1
    17     3     4    1
    18     4    24    1
    19    24    25    1
    20    25    26   ar
    21    26    27   ar
    22    27    28   ar
    23    28    29    1
    24    28    30   ar
    25    30    31   ar
    26     4     5    1
    27     5     6    1
    28     6     1    1
    29    12     7    1
    30    31    25   ar
    31    18    13   ar
    32    16    19    1
    33    16    20    1
    34    18    21    1
@<TRIPOS>MOLECULE
*****
 31 34 0 0 0
SMALL
GASTEIGER

@<TRIPOS>ATOM
      1 C         141.4290  138.3529  159.6436 C.3     1  UNL1        0.1312
      2 C         141.3134  138.4841  161.1333 C.3     1  UNL1        0.1020
      3 N         140.1356  139.1919  161.7348 N.3     1  UNL1       -0.2706
      4 C         139.0734  139.7685  160.8466 C.3     1  UNL1        0.0917
      5 C         139.1889  139.6374  159.3569 C.3     1  UNL1        0.1583
      6 O         140.3667  138.9296  158.7553 O.3     1  UNL1       -0.3534
      7 C         140.0201  139.3230  163.2247 C.3     1  UNL1        0.0610
      8 C         140.8573  140.3300  163.9561 C.3     1  UNL1        0.0375
      9 C         140.7419  140.4612  165.4458 C.3     1  UNL1        0.0950
     10 N         139.7892  139.5852  166.2043 N.pl3   1  UNL1       -0.2785
     11 C         138.9519  138.5782  165.4729 C.3     1  UNL1        0.0950
     12 C         139.0674  138.4471  163.9830 C.3     1  UNL1        0.0375
     13 C         139.6737  139.7164  167.6940 C.ar    1  UNL1        0.2163
     14 N         140.7737  140.1174  168.6317 N.ar    1  UNL1       -0.1804
     15 C         140.2178  140.1184  170.0249 C.ar    1  UNL1        0.2331
     16 N         140.9729  140.4598  171.2752 N.pl3   1  UNL1       -0.3262
     17 N         138.7742  139.7180  169.9483 N.ar    1  UNL1       -0.1354
     18 N         138.4380  139.4696  168.5077 N.ar    1  UNL1       -0.2450
     19 H         141.9231  140.7122  171.2230 H       1  UNL1        0.1452
     20 H         140.5184  140.4316  172.1480 H       1  UNL1        0.1452
     21 H         137.5603  139.1931  168.1578 H       1  UNL1        0.1919
     22 C         142.6454  137.3731  157.5675 C.3     1  UNL1        0.0026
     23 C         142.6067  137.6451  159.0421 C.3     1  UNL1        0.0310
     24 C         137.8956  140.4763  161.4481 C.3     1  UNL1        0.0448
     25 C         138.1102  141.6467  162.3614 C.ar    1  UNL1       -0.0207
     26 C         137.4324  141.6885  163.6990 C.ar    1  UNL1       -0.0034
     27 C         137.6470  142.8588  164.6122 C.ar    1  UNL1        0.0111
     28 C         138.5393  143.9875  164.1881 C.ar    1  UNL1        0.0577
     29 CL        138.7539  145.1579  165.1014 Cl      1  UNL1       -0.0822
     30 C         139.2171  143.9457  162.8506 C.ar    1  UNL1        0.0111
     31 C         139.0025  142.7753  161.9372 C.ar    1  UNL1       -0.0034
@<TRIPOS>BOND
     1    22    23    1
     2     1    23    1
     3     1     2    1
     4     2     3    1
     5     3     7    1
     6     7     8    1
     7     8     9    1
     8     9    10    1
     9    10    13    1
    10    13    14   ar
    11    14    15   ar
    12    15    16    1
    13    15    17   ar
    14    17    18   ar
    15    10    11    1
    16    11    12    1
    17     3     4    1
    18     4    24    1
    19    24    25    1
    20    25    26   ar
    21    26    27   ar
    22    27    28   ar
    23    28    29    1
    24    28    30   ar
    25    30    31   ar
    26     4     5    1
    27     5     6    1
    28     6     1    1
    29    12     7    1
    30    31    25   ar
    31    18    13   ar
    32    16    19    1
    33    16    20    1
    34    18    21    1
@<TRIPOS>MOLECULE
*****
 31 34 0 0 0
SMALL
GASTEIGER

@<TRIPOS>ATOM
      1 C         142.1279  140.7111  169.0635 C.3     1  UNL1        0.1312
      2 C         142.4630  140.4379  167.6272 C.3     1  UNL1        0.1020
      3 N         141.3797  140.0500  166.6649 N.3     1  UNL1       -0.2706
      4 C         139.9612  139.9353  167.1390 C.3     1  UNL1        0.0917
      5 C         139.6261  140.2085  168.5752 C.3     1  UNL1        0.1583
      6 O         140.7094  140.5964  169.5375 O.3     1  UNL1       -0.3534
      7 C         141.7149  139.7768  165.2286 C.3     1  UNL1        0.0610
      8 C         142.0023  140.9158  164.2957 C.3     1  UNL1        0.0375
      9 C         142.3375  140.6426  162.8594 C.3     1  UNL1        0.0950
     10 N         142.3853  139.2304  162.3559 N.pl3   1  UNL1       -0.2785
     11 C         142.0980  138.0914  163.2887 C.3     1  UNL1        0.0950
     12 C         141.7627  138.3647  164.7251 C.3     1  UNL1        0.0375
     13 C         142.7205  138.9573  160.9196 C.ar    1  UNL1        0.2163
     14 N         142.2665  137.7735  160.1180 N.ar    1  UNL1       -0.1804
     15 C         142.8339  137.9045  158.7357 C.ar    1  UNL1        0.2331
     16 N         142.6321  136.9401  157.6047 N.pl3   1  UNL1       -0.3262
     17 N         143.6387  139.1693  158.6829 N.ar    1  UNL1       -0.1354
     18 N         143.5686  139.8199  160.0327 N.ar    1  UNL1       -0.2450
     19 H         142.0838  136.1333  157.7377 H       1  UNL1        0.1452
     20 H         143.0479  137.1139  156.7294 H       1  UNL1        0.1452
     21 H         144.0029  140.6648  160.2911 H       1  UNL1        0.1919
     22 C         143.8852  142.4330  169.8983 C.3     1  UNL1        0.0026
     23 C         143.2112  141.0991  170.0257 C.3     1  UNL1        0.0310
     24 C         138.8779  139.5474  166.1767 C.3     1  UNL1        0.0448
     25 C         138.6288  140.3783  164.9530 C.ar    1  UNL1       -0.0207
     26 C         138.4343  139.7141  163.6222 C.ar    1  UNL1       -0.0034
     27 C         138.1852  140.5451  162.3985 C.ar    1  UNL1        0.0111
     28 C         138.1306  142.0403  162.5056 C.ar    1  UNL1        0.0577
     29 CL        137.8815  142.8712  161.2818 Cl      1  UNL1       -0.0822
     30 C         138.3251  142.7045  163.8363 C.ar    1  UNL1        0.0111
     31 C         138.5742  141.8735  165.0601 C.ar    1  UNL1       -0.0034
@<TRIPOS>BOND
     1    22    23    1
     2     1    23    1
     3     1     2    1
     4     2     3    1
     5     3     7    1
     6     7     8    1
     7     8     9    1
     8     9    10    1
     9    10    13    1
    10    13    14   ar
    11    14    15   ar
    12    15    16    1
    13    15    17   ar
    14    17    18   ar
    15    10    11    1
    16    11    12    1
    17     3     4    1
    18     4    24    1
    19    24    25    1
    20    25    26   ar
    21    26    27   ar
    22    27    28   ar
    23    28    29    1
    24    28    30   ar
    25    30    31   ar
    26     4     5    1
    27     5     6    1
    28     6     1    1
    29    12     7    1
    30    31    25   ar
    31    18    13   ar
    32    16    19    1
    33    16    20    1
    34    18    21    1
