@<TRIPOS>MOLECULE
*****
 39 44 0 0 0
SMALL
GASTEIGER

@<TRIPOS>ATOM
      1 C         141.6764  141.3754  166.3521 C.3     1  UNL1        0.0414
      2 C         143.1646  141.3400  166.1670 C.3     1  UNL1        0.0741
      3 C         143.2035  141.4713  166.0902 C.3     1  UNL1        0.0893
      4 C         143.7448  140.5838  165.0087 C.3     1  UNL1        0.0386
      5 C         144.3626  141.1875  163.7824 C.3     1  UNL1        0.0594
      6 C         144.8674  142.1859  162.7831 C.3     1  UNL1        0.0174
      7 C         144.5991  143.5590  163.3239 C.3     1  UNL1        0.0174
      8 C         143.9286  143.4094  164.6573 C.3     1  UNL1        0.0594
      9 C         143.2802  142.9622  165.9453 C.3     1  UNL1        0.0386
     10 N         143.7824  141.9436  164.9407 N.3     1  UNL1       -0.2750
     11 C         143.4441  138.3533  167.0230 C.3     1  UNL1        0.0718
     12 C         142.6963  139.4345  167.7453 C.ar    1  UNL1        0.1207
     13 N         141.9277  139.2724  169.0232 N.ar    1  UNL1       -0.2309
     14 C         141.3421  140.6053  169.3842 C.ar    1  UNL1        0.0983
     15 C         140.4911  141.0487  170.5371 C.ar    1  UNL1        0.0206
     16 C         140.0468  142.4780  170.6353 C.ar    1  UNL1        0.0016
     17 C         140.4535  143.4639  169.5805 C.ar    1  UNL1        0.0016
     18 C         141.3044  143.0206  168.4276 C.ar    1  UNL1        0.0188
     19 C         141.7488  141.5913  168.3295 C.ar    1  UNL1        0.0785
     20 N         142.5857  140.8677  167.3166 N.ar    1  UNL1       -0.3167
     21 C         140.7726  140.8983  165.2543 C.3     1  UNL1        0.0955
     22 C         139.8804  139.7135  165.4790 C.ar    1  UNL1       -0.0022
     23 C         139.9814  138.5175  164.5793 C.ar    1  UNL1       -0.0025
     24 C         139.0893  137.3327  164.8039 C.ar    1  UNL1        0.0020
     25 C         138.0964  137.3439  165.9282 C.ar    1  UNL1        0.0296
     26 C         137.9955  138.5399  166.8279 C.ar    1  UNL1        0.1399
     27 F         137.0025  138.5511  167.9521 F       1  UNL1       -0.2042
     28 C         138.8875  139.7247  166.6033 C.ar    1  UNL1        0.0270
     29 N         140.7607  141.6060  163.9317 N.am    1  UNL1       -0.3022
     30 C         140.3388  143.0433  163.8540 C.2     1  UNL1        0.2225
     31 O         139.9287  143.7730  165.0987 O.2     1  UNL1       -0.2751
     32 H         141.0298  141.1271  163.1147 H       1  UNL1        0.1497
     33 C         140.3269  143.7510  162.5314 C.3     1  UNL1        0.0869
     34 C         139.9614  145.2041  162.4616 C.3     1  UNL1        0.0736
     35 C         139.9496  145.9117  161.1390 C.3     1  UNL1        0.2560
     36 S         140.3031  145.1662  159.8863 S.O     1  UNL1        0.0304
     37 O         140.2912  145.8739  158.5638 O.co2   1  UNL1       -0.6813
     38 C         140.6685  143.7131  159.9562 C.3     1  UNL1        0.2560
     39 C         140.6804  143.0055  161.2788 C.3     1  UNL1        0.0736
@<TRIPOS>UNITY_ATOM_ATTR
36 1
charge 1
37 1
charge -1
@<TRIPOS>BOND
     1    11    12    1
     2    12    13   ar
     3    13    14   ar
     4    14    15   ar
     5    15    16   ar
     6    16    17   ar
     7    17    18   ar
     8    18    19   ar
     9    19    20   ar
    10    20     3    1
    11     3     4    1
    12     5     4    1
    13     5     6    1
    14     6     7    1
    15     8     7    1
    16     8     9    1
    17     8    10    1
    18    10     2    1
    19     2     1    1
    20    21     1    1
    21    21    29    1
    22    29    30   am
    23    30    31    2
    24    30    33    1
    25    33    34    1
    26    34    35    1
    27    35    36    1
    28    36    37    2
    29    36    38    1
    30    38    39    1
    31    21    22    1
    32    22    23   ar
    33    23    24   ar
    34    24    25   ar
    35    25    26   ar
    36    26    27    1
    37    26    28   ar
    38    20    12   ar
    39     9     3    1
    40    39    33    1
    41    28    22   ar
    42    19    14   ar
    43    10     5    1
    44    29    32    1
@<TRIPOS>MOLECULE
*****
 39 44 0 0 0
SMALL
GASTEIGER

@<TRIPOS>ATOM
      1 C         142.0793  142.8051  163.3379 C.3     1  UNL1        0.0414
      2 C         141.0033  143.6832  162.7711 C.3     1  UNL1        0.0741
      3 C         140.9371  143.7509  162.8963 C.3     1  UNL1        0.0893
      4 C         139.6376  143.1680  162.4253 C.3     1  UNL1        0.0386
      5 C         138.3798  143.4115  163.2055 C.3     1  UNL1        0.0594
      6 C         137.4228  143.8946  164.2547 C.3     1  UNL1        0.0174
      7 C         138.1971  144.7083  165.2489 C.3     1  UNL1        0.0174
      8 C         139.6325  144.7282  164.8142 C.3     1  UNL1        0.0594
      9 C         140.9786  144.5774  164.1473 C.3     1  UNL1        0.0386
     10 N         139.7455  143.9267  163.5512 N.3     1  UNL1       -0.2750
     11 C         143.8579  145.0733  163.5044 C.3     1  UNL1        0.0718
     12 C         143.5374  144.1152  162.3956 C.ar    1  UNL1        0.1207
     13 N         144.5031  143.5967  161.3717 N.ar    1  UNL1       -0.2309
     14 C         143.7575  142.6684  160.4593 C.ar    1  UNL1        0.0983
     15 C         144.1933  141.8663  159.2691 C.ar    1  UNL1        0.0206
     16 C         143.2024  141.0090  158.5390 C.ar    1  UNL1        0.0016
     17 C         141.7758  140.9538  158.9991 C.ar    1  UNL1        0.0016
     18 C         141.3400  141.7559  160.1893 C.ar    1  UNL1        0.0188
     19 C         142.3309  142.6132  160.9194 C.ar    1  UNL1        0.0785
     20 N         142.1949  143.5074  162.1161 N.ar    1  UNL1       -0.3167
     21 C         141.7151  141.5310  164.0405 C.3     1  UNL1        0.0955
     22 C         141.7884  140.2235  163.3088 C.ar    1  UNL1       -0.0022
     23 C         143.1224  139.6345  162.9575 C.ar    1  UNL1       -0.0025
     24 C         143.1957  138.3271  162.2258 C.ar    1  UNL1        0.0020
     25 C         141.9350  137.6089  161.8454 C.ar    1  UNL1        0.0296
     26 C         140.6009  138.1979  162.1967 C.ar    1  UNL1        0.1399
     27 F         139.3403  137.4796  161.8163 F       1  UNL1       -0.2042
     28 C         140.5276  139.5053  162.9284 C.ar    1  UNL1        0.0270
     29 N         141.2775  141.5641  165.4750 N.am    1  UNL1       -0.3022
     30 C         142.2415  141.9871  166.5436 C.2     1  UNL1        0.2225
     31 O         143.6430  142.3770  166.1778 O.2     1  UNL1       -0.2751
     32 H         140.3577  141.3082  165.7151 H       1  UNL1        0.1497
     33 C         141.8040  142.0203  167.9780 C.3     1  UNL1        0.0869
     34 C         142.5638  141.2434  169.0120 C.3     1  UNL1        0.0736
     35 C         142.1262  141.2767  170.4464 C.3     1  UNL1        0.2560
     36 S         140.9288  142.0866  170.8468 S.O     1  UNL1        0.0304
     37 O         140.4913  142.1197  172.2811 O.co2   1  UNL1       -0.6813
     38 C         140.1690  142.8634  169.8126 C.3     1  UNL1        0.2560
     39 C         140.6066  142.8302  168.3783 C.3     1  UNL1        0.0736
@<TRIPOS>UNITY_ATOM_ATTR
36 1
charge 1
37 1
charge -1
@<TRIPOS>BOND
     1    11    12    1
     2    12    13   ar
     3    13    14   ar
     4    14    15   ar
     5    15    16   ar
     6    16    17   ar
     7    17    18   ar
     8    18    19   ar
     9    19    20   ar
    10    20     3    1
    11     3     4    1
    12     5     4    1
    13     5     6    1
    14     6     7    1
    15     8     7    1
    16     8     9    1
    17     8    10    1
    18    10     2    1
    19     2     1    1
    20    21     1    1
    21    21    29    1
    22    29    30   am
    23    30    31    2
    24    30    33    1
    25    33    34    1
    26    34    35    1
    27    35    36    1
    28    36    37    2
    29    36    38    1
    30    38    39    1
    31    21    22    1
    32    22    23   ar
    33    23    24   ar
    34    24    25   ar
    35    25    26   ar
    36    26    27    1
    37    26    28   ar
    38    20    12   ar
    39     9     3    1
    40    39    33    1
    41    28    22   ar
    42    19    14   ar
    43    10     5    1
    44    29    32    1
@<TRIPOS>MOLECULE
*****
 39 44 0 0 0
SMALL
GASTEIGER

@<TRIPOS>ATOM
      1 C         139.6849  140.9251  162.7488 C.3     1  UNL1        0.0414
      2 C         138.4168  140.4690  163.4075 C.3     1  UNL1        0.0741
      3 C         138.4637  140.3250  163.4487 C.3     1  UNL1        0.0893
      4 C         137.8362  140.5898  164.7853 C.3     1  UNL1        0.0386
      5 C         137.8828  139.5409  165.8567 C.3     1  UNL1        0.0594
      6 C         138.1592  138.2619  166.5899 C.3     1  UNL1        0.0174
      7 C         138.9105  137.3506  165.6651 C.3     1  UNL1        0.0174
      8 C         139.0985  138.0665  164.3604 C.3     1  UNL1        0.0594
      9 C         139.1376  139.0115  163.1837 C.3     1  UNL1        0.0386
     10 N         138.4633  139.4202  164.4788 N.3     1  UNL1       -0.2750
     11 C         137.8783  143.5035  163.9002 C.3     1  UNL1        0.0718
     12 C         138.1481  142.8348  162.5849 C.ar    1  UNL1        0.1207
     13 N         138.1962  143.5097  161.2462 N.ar    1  UNL1       -0.2309
     14 C         138.4950  142.4658  160.2113 C.ar    1  UNL1        0.0983
     15 C         138.6603  142.5467  158.7227 C.ar    1  UNL1        0.0206
     16 C         138.9623  141.3076  157.9332 C.ar    1  UNL1        0.0016
     17 C         139.0988  139.9876  158.6323 C.ar    1  UNL1        0.0016
     18 C         138.9335  139.9066  160.1209 C.ar    1  UNL1        0.0188
     19 C         138.6315  141.1457  160.9104 C.ar    1  UNL1        0.0785
     20 N         138.4172  141.3738  162.3774 N.ar    1  UNL1       -0.3167
     21 C         140.8245  141.4291  163.5838 C.3     1  UNL1        0.0955
     22 C         142.1798  141.6161  162.9687 C.ar    1  UNL1       -0.0022
     23 C         142.8853  140.4512  162.3401 C.ar    1  UNL1       -0.0025
     24 C         144.2405  140.6381  161.7249 C.ar    1  UNL1        0.0020
     25 C         144.8901  141.9901  161.7384 C.ar    1  UNL1        0.0296
     26 C         144.1847  143.1551  162.3670 C.ar    1  UNL1        0.1399
     27 F         144.8344  144.5070  162.3805 F       1  UNL1       -0.2042
     28 C         142.8294  142.9681  162.9822 C.ar    1  UNL1        0.0270
     29 N         140.6089  141.7460  165.0341 N.am    1  UNL1       -0.3022
     30 C         141.1903  140.8546  166.0911 C.2     1  UNL1        0.2225
     31 O         141.9872  139.6461  165.6979 O.2     1  UNL1       -0.2751
     32 H         140.0858  142.5392  165.2921 H       1  UNL1        0.1497
     33 C         140.9747  141.1715  167.5413 C.3     1  UNL1        0.0869
     34 C         140.9049  140.0626  168.5490 C.3     1  UNL1        0.0736
     35 C         140.6893  140.3797  169.9992 C.3     1  UNL1        0.2560
     36 S         140.5436  141.8055  170.4417 S.O     1  UNL1        0.0304
     37 O         140.3280  142.1224  171.8919 O.co2   1  UNL1       -0.6813
     38 C         140.6135  142.9143  169.4339 C.3     1  UNL1        0.2560
     39 C         140.8290  142.5973  167.9837 C.3     1  UNL1        0.0736
@<TRIPOS>UNITY_ATOM_ATTR
36 1
charge 1
37 1
charge -1
@<TRIPOS>BOND
     1    11    12    1
     2    12    13   ar
     3    13    14   ar
     4    14    15   ar
     5    15    16   ar
     6    16    17   ar
     7    17    18   ar
     8    18    19   ar
     9    19    20   ar
    10    20     3    1
    11     3     4    1
    12     5     4    1
    13     5     6    1
    14     6     7    1
    15     8     7    1
    16     8     9    1
    17     8    10    1
    18    10     2    1
    19     2     1    1
    20    21     1    1
    21    21    29    1
    22    29    30   am
    23    30    31    2
    24    30    33    1
    25    33    34    1
    26    34    35    1
    27    35    36    1
    28    36    37    2
    29    36    38    1
    30    38    39    1
    31    21    22    1
    32    22    23   ar
    33    23    24   ar
    34    24    25   ar
    35    25    26   ar
    36    26    27    1
    37    26    28   ar
    38    20    12   ar
    39     9     3    1
    40    39    33    1
    41    28    22   ar
    42    19    14   ar
    43    10     5    1
    44    29    32    1
@<TRIPOS>MOLECULE
*****
 39 44 0 0 0
SMALL
GASTEIGER

@<TRIPOS>ATOM
      1 C         140.2775  140.5941  163.2988 C.3     1  UNL1        0.0414
      2 C         139.0388  141.3181  162.8609 C.3     1  UNL1        0.0741
      3 C         139.0954  141.4312  162.7679 C.3     1  UNL1        0.0893
      4 C         138.3402  142.4037  163.6247 C.3     1  UNL1        0.0386
      5 C         138.3971  143.8717  163.3217 C.3     1  UNL1        0.0594
      6 C         138.7308  145.1827  162.6737 C.3     1  UNL1        0.0174
      7 C         139.6357  144.9074  161.5095 C.3     1  UNL1        0.0174
      8 C         139.8612  143.4261  161.4379 C.3     1  UNL1        0.0594
      9 C         139.9075  141.9268  161.6082 C.3     1  UNL1        0.0386
     10 N         139.0957  142.7860  162.5579 N.3     1  UNL1       -0.2750
     11 C         139.8631  139.0168  160.7109 C.3     1  UNL1        0.0718
     12 C         139.3914  138.8535  162.1254 C.ar    1  UNL1        0.1207
     13 N         139.1898  137.5517  162.8428 N.ar    1  UNL1       -0.2309
     14 C         138.7122  137.8569  164.2317 C.ar    1  UNL1        0.0983
     15 C         138.3505  136.9702  165.3862 C.ar    1  UNL1        0.0206
     16 C         137.8952  137.5739  166.6816 C.ar    1  UNL1        0.0016
     17 C         137.8018  139.0644  166.8225 C.ar    1  UNL1        0.0016
     18 C         138.1636  139.9511  165.6681 C.ar    1  UNL1        0.0188
     19 C         138.6188  139.3473  164.3726 C.ar    1  UNL1        0.0785
     20 N         139.0386  139.9632  163.0709 N.ar    1  UNL1       -0.3167
     21 C         141.3397  141.3224  164.0675 C.3     1  UNL1        0.0955
     22 C         142.6415  141.6664  163.4062 C.ar    1  UNL1       -0.0022
     23 C         143.5175  140.5769  162.8628 C.ar    1  UNL1       -0.0025
     24 C         144.8192  140.9208  162.2016 C.ar    1  UNL1        0.0020
     25 C         145.2448  142.3544  162.0838 C.ar    1  UNL1        0.0296
     26 C         144.3688  143.4439  162.6272 C.ar    1  UNL1        0.1399
     27 F         144.7944  144.8775  162.5094 F       1  UNL1       -0.2042
     28 C         143.0671  143.1000  163.2885 C.ar    1  UNL1        0.0270
     29 N         141.1004  141.7068  165.4976 N.am    1  UNL1       -0.3022
     30 C         141.3164  140.7023  166.5905 C.2     1  UNL1        0.2225
     31 O         141.7717  139.3134  166.2533 O.2     1  UNL1       -0.2751
     32 H         140.8015  142.6184  165.7189 H       1  UNL1        0.1497
     33 C         141.0770  141.0866  168.0205 C.3     1  UNL1        0.0869
     34 C         140.9232  142.5315  168.3931 C.3     1  UNL1        0.0736
     35 C         140.6839  142.9157  169.8232 C.3     1  UNL1        0.2560
     36 S         140.5983  141.8553  170.8806 S.O     1  UNL1        0.0304
     37 O         140.3590  142.2396  172.3106 O.co2   1  UNL1       -0.6813
     38 C         140.7522  140.4104  170.5079 C.3     1  UNL1        0.2560
     39 C         140.9915  140.0262  169.0779 C.3     1  UNL1        0.0736
@<TRIPOS>UNITY_ATOM_ATTR
36 1
charge 1
37 1
charge -1
@<TRIPOS>BOND
     1    11    12    1
     2    12    13   ar
     3    13    14   ar
     4    14    15   ar
     5    15    16   ar
     6    16    17   ar
     7    17    18   ar
     8    18    19   ar
     9    19    20   ar
    10    20     3    1
    11     3     4    1
    12     5     4    1
    13     5     6    1
    14     6     7    1
    15     8     7    1
    16     8     9    1
    17     8    10    1
    18    10     2    1
    19     2     1    1
    20    21     1    1
    21    21    29    1
    22    29    30   am
    23    30    31    2
    24    30    33    1
    25    33    34    1
    26    34    35    1
    27    35    36    1
    28    36    37    2
    29    36    38    1
    30    38    39    1
    31    21    22    1
    32    22    23   ar
    33    23    24   ar
    34    24    25   ar
    35    25    26   ar
    36    26    27    1
    37    26    28   ar
    38    20    12   ar
    39     9     3    1
    40    39    33    1
    41    28    22   ar
    42    19    14   ar
    43    10     5    1
    44    29    32    1
@<TRIPOS>MOLECULE
*****
 39 44 0 0 0
SMALL
GASTEIGER

@<TRIPOS>ATOM
      1 C         140.0878  142.0460  165.4008 C.3     1  UNL1        0.0414
      2 C         141.1211  143.0182  164.9137 C.3     1  UNL1        0.0741
      3 C         141.0148  143.1180  164.8555 C.3     1  UNL1        0.0893
      4 C         141.9980  143.3995  163.7580 C.3     1  UNL1        0.0386
      5 C         141.6542  144.3803  162.6765 C.3     1  UNL1        0.0594
      6 C         140.9151  145.3877  161.8464 C.3     1  UNL1        0.0174
      7 C         139.5814  145.6289  162.4891 C.3     1  UNL1        0.0174
      8 C         139.4962  144.7707  163.7164 C.3     1  UNL1        0.0594
      9 C         139.6880  143.8174  164.8712 C.3     1  UNL1        0.0386
     10 N         140.7773  143.9989  163.8322 N.3     1  UNL1       -0.2750
     11 C         140.1122  143.3192  167.9851 C.3     1  UNL1        0.0718
     12 C         140.9437  142.2297  167.3756 C.ar    1  UNL1        0.1207
     13 N         141.5064  141.0413  168.0975 N.ar    1  UNL1       -0.2309
     14 C         142.2691  140.2144  167.1052 C.ar    1  UNL1        0.0983
     15 C         143.0349  138.9323  167.2450 C.ar    1  UNL1        0.0206
     16 C         143.7093  138.3274  166.0496 C.ar    1  UNL1        0.0016
     17 C         143.6180  139.0047  164.7143 C.ar    1  UNL1        0.0016
     18 C         142.8522  140.2869  164.5745 C.ar    1  UNL1        0.0188
     19 C         142.1777  140.8917  165.7700 C.ar    1  UNL1        0.0785
     20 N         141.3587  142.1372  165.9371 N.ar    1  UNL1       -0.3167
     21 C         139.6111  140.9446  164.5010 C.3     1  UNL1        0.0955
     22 C         139.0822  139.6706  165.0903 C.ar    1  UNL1       -0.0022
     23 C         139.3949  138.3563  164.4386 C.ar    1  UNL1       -0.0025
     24 C         138.8660  137.0823  165.0278 C.ar    1  UNL1        0.0020
     25 C         138.0244  137.1227  166.2688 C.ar    1  UNL1        0.0296
     26 C         137.7117  138.4370  166.9206 C.ar    1  UNL1        0.1399
     27 F         136.8700  138.4773  168.1616 F       1  UNL1       -0.2042
     28 C         138.2406  139.7110  166.3314 C.ar    1  UNL1        0.0270
     29 N         139.6634  141.1171  163.0118 N.am    1  UNL1       -0.3022
     30 C         138.4067  141.4065  162.2458 C.2     1  UNL1        0.2225
     31 O         137.0977  141.5234  162.9688 O.2     1  UNL1       -0.2751
     32 H         140.5226  141.0404  162.5372 H       1  UNL1        0.1497
     33 C         138.4589  141.5790  160.7566 C.3     1  UNL1        0.0869
     34 C         138.9729  142.8591  160.1675 C.3     1  UNL1        0.0736
     35 C         139.0251  143.0315  158.6783 C.3     1  UNL1        0.2560
     36 S         138.5634  141.9238  157.7783 S.O     1  UNL1        0.0304
     37 O         138.6157  142.0963  156.2892 O.co2   1  UNL1       -0.6813
     38 C         138.0495  140.6437  158.3676 C.3     1  UNL1        0.2560
     39 C         137.9972  140.4713  159.8567 C.3     1  UNL1        0.0736
@<TRIPOS>UNITY_ATOM_ATTR
36 1
charge 1
37 1
charge -1
@<TRIPOS>BOND
     1    11    12    1
     2    12    13   ar
     3    13    14   ar
     4    14    15   ar
     5    15    16   ar
     6    16    17   ar
     7    17    18   ar
     8    18    19   ar
     9    19    20   ar
    10    20     3    1
    11     3     4    1
    12     5     4    1
    13     5     6    1
    14     6     7    1
    15     8     7    1
    16     8     9    1
    17     8    10    1
    18    10     2    1
    19     2     1    1
    20    21     1    1
    21    21    29    1
    22    29    30   am
    23    30    31    2
    24    30    33    1
    25    33    34    1
    26    34    35    1
    27    35    36    1
    28    36    37    2
    29    36    38    1
    30    38    39    1
    31    21    22    1
    32    22    23   ar
    33    23    24   ar
    34    24    25   ar
    35    25    26   ar
    36    26    27    1
    37    26    28   ar
    38    20    12   ar
    39     9     3    1
    40    39    33    1
    41    28    22   ar
    42    19    14   ar
    43    10     5    1
    44    29    32    1
@<TRIPOS>MOLECULE
*****
 39 44 0 0 0
SMALL
GASTEIGER

@<TRIPOS>ATOM
      1 C         140.2358  140.3380  163.0381 C.3     1  UNL1        0.0414
      2 C         138.8411  140.2021  163.5733 C.3     1  UNL1        0.0741
      3 C         138.8555  140.0553  163.6272 C.3     1  UNL1        0.0893
      4 C         138.1139  140.5156  164.8472 C.3     1  UNL1        0.0386
      5 C         137.8282  139.5508  165.9597 C.3     1  UNL1        0.0594
      6 C         137.7700  138.2969  166.7809 C.3     1  UNL1        0.0174
      7 C         138.4613  137.2084  166.0144 C.3     1  UNL1        0.0174
      8 C         138.9466  137.7896  164.7196 C.3     1  UNL1        0.0594
      9 C         139.3112  138.6304  163.5197 C.3     1  UNL1        0.0386
     10 N         138.5554  139.2373  164.6857 N.3     1  UNL1       -0.2750
     11 C         139.3957  139.2769  160.5044 C.3     1  UNL1        0.0718
     12 C         139.3895  140.6623  161.0794 C.ar    1  UNL1        0.1207
     13 N         139.6305  141.9332  160.3199 N.ar    1  UNL1       -0.2309
     14 C         139.5312  143.0764  161.2859 C.ar    1  UNL1        0.0983
     15 C         139.6771  144.5584  161.1056 C.ar    1  UNL1        0.0206
     16 C         139.5205  145.4760  162.2818 C.ar    1  UNL1        0.0016
     17 C         139.2181  144.9116  163.6383 C.ar    1  UNL1        0.0016
     18 C         139.0722  143.4297  163.8186 C.ar    1  UNL1        0.0188
     19 C         139.2288  142.5121  162.6424 C.ar    1  UNL1        0.0785
     20 N         139.1412  141.0201  162.5147 N.ar    1  UNL1       -0.3167
     21 C         141.3101  140.9464  163.8898 C.3     1  UNL1        0.0955
     22 C         142.6058  141.3773  163.2687 C.ar    1  UNL1       -0.0022
     23 C         143.5437  140.3523  162.7033 C.ar    1  UNL1       -0.0025
     24 C         144.8394  140.7831  162.0822 C.ar    1  UNL1        0.0020
     25 C         145.1970  142.2388  162.0267 C.ar    1  UNL1        0.0296
     26 C         144.2591  143.2637  162.5921 C.ar    1  UNL1        0.1399
     27 F         144.6168  144.7194  162.5366 F       1  UNL1       -0.2042
     28 C         142.9634  142.8330  163.2132 C.ar    1  UNL1        0.0270
     29 N         141.0887  141.1242  165.3628 N.am    1  UNL1       -0.3022
     30 C         141.5233  140.0549  166.3209 C.2     1  UNL1        0.2225
     31 O         142.1791  138.8080  165.8061 O.2     1  UNL1       -0.2751
     32 H         140.6583  141.9426  165.7007 H       1  UNL1        0.1497
     33 C         141.3020  140.2326  167.7938 C.3     1  UNL1        0.0869
     34 C         140.0951  140.9745  168.2867 C.3     1  UNL1        0.0736
     35 C         139.8738  141.1521  169.7597 C.3     1  UNL1        0.2560
     36 S         140.8595  140.5880  170.7397 S.O     1  UNL1        0.0304
     37 O         140.6382  140.7657  172.2125 O.co2   1  UNL1       -0.6813
     38 C         142.0664  139.8461  170.2466 C.3     1  UNL1        0.2560
     39 C         142.2876  139.6685  168.7737 C.3     1  UNL1        0.0736
@<TRIPOS>UNITY_ATOM_ATTR
36 1
charge 1
37 1
charge -1
@<TRIPOS>BOND
     1    11    12    1
     2    12    13   ar
     3    13    14   ar
     4    14    15   ar
     5    15    16   ar
     6    16    17   ar
     7    17    18   ar
     8    18    19   ar
     9    19    20   ar
    10    20     3    1
    11     3     4    1
    12     5     4    1
    13     5     6    1
    14     6     7    1
    15     8     7    1
    16     8     9    1
    17     8    10    1
    18    10     2    1
    19     2     1    1
    20    21     1    1
    21    21    29    1
    22    29    30   am
    23    30    31    2
    24    30    33    1
    25    33    34    1
    26    34    35    1
    27    35    36    1
    28    36    37    2
    29    36    38    1
    30    38    39    1
    31    21    22    1
    32    22    23   ar
    33    23    24   ar
    34    24    25   ar
    35    25    26   ar
    36    26    27    1
    37    26    28   ar
    38    20    12   ar
    39     9     3    1
    40    39    33    1
    41    28    22   ar
    42    19    14   ar
    43    10     5    1
    44    29    32    1
@<TRIPOS>MOLECULE
*****
 39 44 0 0 0
SMALL
GASTEIGER

@<TRIPOS>ATOM
      1 C         139.6937  141.4286  163.0939 C.3     1  UNL1        0.0414
      2 C         138.5949  140.4075  163.1126 C.3     1  UNL1        0.0741
      3 C         138.5600  140.3857  163.2640 C.3     1  UNL1        0.0893
      4 C         138.9011  138.9404  163.0517 C.3     1  UNL1        0.0386
      5 C         138.7980  137.9702  164.1911 C.3     1  UNL1        0.0594
      6 C         138.5598  137.3902  165.5538 C.3     1  UNL1        0.0174
      7 C         138.1064  138.4988  166.4567 C.3     1  UNL1        0.0174
      8 C         138.0644  139.7641  165.6522 C.3     1  UNL1        0.0594
      9 C         138.1158  140.8606  164.6157 C.3     1  UNL1        0.0386
     10 N         138.4918  139.4374  164.2519 N.3     1  UNL1       -0.2750
     11 C         137.5688  143.4947  163.2963 C.3     1  UNL1        0.0718
     12 C         138.2075  142.7849  162.1395 C.ar    1  UNL1        0.1207
     13 N         138.5028  143.3794  160.7944 N.ar    1  UNL1       -0.2309
     14 C         139.1408  142.3178  159.9482 C.ar    1  UNL1        0.0983
     15 C         139.6444  142.3285  158.5354 C.ar    1  UNL1        0.0206
     16 C         140.2471  141.0884  157.9447 C.ar    1  UNL1        0.0016
     17 C         140.3461  139.8377  158.7668 C.ar    1  UNL1        0.0016
     18 C         139.8426  139.8271  160.1797 C.ar    1  UNL1        0.0188
     19 C         139.2399  141.0672  160.7704 C.ar    1  UNL1        0.0785
     20 N         138.6631  141.3558  162.1246 N.ar    1  UNL1       -0.3167
     21 C         141.0500  141.0807  163.6316 C.3     1  UNL1        0.0955
     22 C         142.1522  140.6910  162.6917 C.ar    1  UNL1       -0.0022
     23 C         142.7682  141.7199  161.7906 C.ar    1  UNL1       -0.0025
     24 C         143.8703  141.3303  160.8507 C.ar    1  UNL1        0.0020
     25 C         144.3564  139.9117  160.8119 C.ar    1  UNL1        0.0296
     26 C         143.7404  138.8828  161.7130 C.ar    1  UNL1        0.1399
     27 F         144.2266  137.4643  161.6741 F       1  UNL1       -0.2042
     28 C         142.6383  139.2724  162.6529 C.ar    1  UNL1        0.0270
     29 N         141.3043  141.1225  165.1094 N.am    1  UNL1       -0.3022
     30 C         141.2281  142.4264  165.8470 C.2     1  UNL1        0.2225
     31 O         140.8975  143.6885  165.1069 O.2     1  UNL1       -0.2751
     32 H         141.5212  140.2941  165.5952 H       1  UNL1        0.1497
     33 C         141.4823  142.4682  167.3247 C.3     1  UNL1        0.0869
     34 C         142.8270  142.0818  167.8655 C.3     1  UNL1        0.0736
     35 C         143.0812  142.1236  169.3433 C.3     1  UNL1        0.2560
     36 S         141.9908  142.5518  170.2802 S.O     1  UNL1        0.0304
     37 O         142.2451  142.5936  171.7578 O.co2   1  UNL1       -0.6813
     38 C         140.6461  142.9381  169.7392 C.3     1  UNL1        0.2560
     39 C         140.3919  142.8963  168.2615 C.3     1  UNL1        0.0736
@<TRIPOS>UNITY_ATOM_ATTR
36 1
charge 1
37 1
charge -1
@<TRIPOS>BOND
     1    11    12    1
     2    12    13   ar
     3    13    14   ar
     4    14    15   ar
     5    15    16   ar
     6    16    17   ar
     7    17    18   ar
     8    18    19   ar
     9    19    20   ar
    10    20     3    1
    11     3     4    1
    12     5     4    1
    13     5     6    1
    14     6     7    1
    15     8     7    1
    16     8     9    1
    17     8    10    1
    18    10     2    1
    19     2     1    1
    20    21     1    1
    21    21    29    1
    22    29    30   am
    23    30    31    2
    24    30    33    1
    25    33    34    1
    26    34    35    1
    27    35    36    1
    28    36    37    2
    29    36    38    1
    30    38    39    1
    31    21    22    1
    32    22    23   ar
    33    23    24   ar
    34    24    25   ar
    35    25    26   ar
    36    26    27    1
    37    26    28   ar
    38    20    12   ar
    39     9     3    1
    40    39    33    1
    41    28    22   ar
    42    19    14   ar
    43    10     5    1
    44    29    32    1
@<TRIPOS>MOLECULE
*****
 39 44 0 0 0
SMALL
GASTEIGER

@<TRIPOS>ATOM
      1 C         140.2885  142.0779  165.5152 C.3     1  UNL1        0.0414
      2 C         141.1857  143.1586  164.9886 C.3     1  UNL1        0.0741
      3 C         141.0651  143.2460  164.9391 C.3     1  UNL1        0.0893
      4 C         141.9543  143.6968  163.8183 C.3     1  UNL1        0.0386
      5 C         141.4398  144.6672  162.7967 C.3     1  UNL1        0.0594
      6 C         140.5415  145.6025  162.0428 C.3     1  UNL1        0.0174
      7 C         139.2178  145.6422  162.7471 C.3     1  UNL1        0.0174
      8 C         139.2979  144.7316  163.9364 C.3     1  UNL1        0.0594
      9 C         139.6615  143.7657  165.0383 C.3     1  UNL1        0.0386
     10 N         140.6713  144.1290  163.9671 N.3     1  UNL1       -0.2750
     11 C         143.1273  140.7805  164.3751 C.3     1  UNL1        0.0718
     12 C         142.5274  141.1424  165.7015 C.ar    1  UNL1        0.1207
     13 N         142.7701  140.4345  167.0015 N.ar    1  UNL1       -0.2309
     14 C         141.9722  141.1302  168.0642 C.ar    1  UNL1        0.0983
     15 C         141.8206  140.8746  169.5344 C.ar    1  UNL1        0.0206
     16 C         140.9331  141.7569  170.3614 C.ar    1  UNL1        0.0016
     17 C         140.1973  142.8948  169.7182 C.ar    1  UNL1        0.0016
     18 C         140.3489  143.1504  168.2480 C.ar    1  UNL1        0.0188
     19 C         141.2363  142.2681  167.4209 C.ar    1  UNL1        0.0785
     20 N         141.5795  142.2756  165.9607 N.ar    1  UNL1       -0.3167
     21 C         139.7659  141.0197  164.5896 C.3     1  UNL1        0.0955
     22 C         139.1965  139.7492  165.1481 C.ar    1  UNL1       -0.0022
     23 C         139.4633  138.4425  164.4616 C.ar    1  UNL1       -0.0025
     24 C         138.8940  137.1720  165.0200 C.ar    1  UNL1        0.0020
     25 C         138.0580  137.2084  166.2649 C.ar    1  UNL1        0.0296
     26 C         137.7913  138.5151  166.9514 C.ar    1  UNL1        0.1399
     27 F         136.9553  138.5514  168.1963 F       1  UNL1       -0.2042
     28 C         138.3605  139.7856  166.3930 C.ar    1  UNL1        0.0270
     29 N         139.8126  141.2318  163.1053 N.am    1  UNL1       -0.3022
     30 C         138.5394  141.4137  162.3333 C.2     1  UNL1        0.2225
     31 O         137.2196  141.3835  163.0454 O.2     1  UNL1       -0.2751
     32 H         140.6788  141.2517  162.6379 H       1  UNL1        0.1497
     33 C         138.5861  141.6258  160.8491 C.3     1  UNL1        0.0869
     34 C         138.0819  140.5591  159.9228 C.3     1  UNL1        0.0736
     35 C         138.1287  140.7713  158.4386 C.3     1  UNL1        0.2560
     36 S         138.6795  142.0501  157.8807 S.O     1  UNL1        0.0304
     37 O         138.7261  142.2622  156.3965 O.co2   1  UNL1       -0.6813
     38 C         139.1836  143.1168  158.8071 C.3     1  UNL1        0.2560
     39 C         139.1369  142.9046  160.2912 C.3     1  UNL1        0.0736
@<TRIPOS>UNITY_ATOM_ATTR
36 1
charge 1
37 1
charge -1
@<TRIPOS>BOND
     1    11    12    1
     2    12    13   ar
     3    13    14   ar
     4    14    15   ar
     5    15    16   ar
     6    16    17   ar
     7    17    18   ar
     8    18    19   ar
     9    19    20   ar
    10    20     3    1
    11     3     4    1
    12     5     4    1
    13     5     6    1
    14     6     7    1
    15     8     7    1
    16     8     9    1
    17     8    10    1
    18    10     2    1
    19     2     1    1
    20    21     1    1
    21    21    29    1
    22    29    30   am
    23    30    31    2
    24    30    33    1
    25    33    34    1
    26    34    35    1
    27    35    36    1
    28    36    37    2
    29    36    38    1
    30    38    39    1
    31    21    22    1
    32    22    23   ar
    33    23    24   ar
    34    24    25   ar
    35    25    26   ar
    36    26    27    1
    37    26    28   ar
    38    20    12   ar
    39     9     3    1
    40    39    33    1
    41    28    22   ar
    42    19    14   ar
    43    10     5    1
    44    29    32    1
@<TRIPOS>MOLECULE
*****
 39 44 0 0 0
SMALL
GASTEIGER

@<TRIPOS>ATOM
      1 C         140.8131  141.9095  165.5020 C.3     1  UNL1        0.0414
      2 C         141.7964  142.1173  166.6156 C.3     1  UNL1        0.0741
      3 C         141.7276  142.0874  166.7534 C.3     1  UNL1        0.0893
      4 C         142.6823  140.9384  166.8898 C.3     1  UNL1        0.0386
      5 C         142.6333  140.0630  168.1069 C.3     1  UNL1        0.0594
      6 C         142.2372  139.4841  169.4328 C.3     1  UNL1        0.0174
      7 C         141.1066  140.3053  169.9780 C.3     1  UNL1        0.0174
      8 C         140.8038  141.3917  168.9890 C.3     1  UNL1        0.0594
      9 C         140.7240  142.3608  167.8341 C.3     1  UNL1        0.0386
     10 N         141.7474  141.2419  167.8325 N.3     1  UNL1       -0.2750
     11 C         144.4115  142.9101  165.0893 C.3     1  UNL1        0.0718
     12 C         143.0103  143.3410  164.7715 C.ar    1  UNL1        0.1207
     13 N         142.5967  144.2257  163.6330 N.ar    1  UNL1       -0.2309
     14 C         141.1074  144.3943  163.6942 C.ar    1  UNL1        0.0983
     15 C         140.1474  145.1577  162.8308 C.ar    1  UNL1        0.0206
     16 C         138.6806  145.1405  163.1438 C.ar    1  UNL1        0.0016
     17 C         138.1737  144.3600  164.3202 C.ar    1  UNL1        0.0016
     18 C         139.1338  143.5967  165.1836 C.ar    1  UNL1        0.0188
     19 C         140.6006  143.6138  164.8706 C.ar    1  UNL1        0.0785
     20 N         141.7766  142.9628  165.5364 N.ar    1  UNL1       -0.3167
     21 C         140.8018  140.6158  164.7431 C.3     1  UNL1        0.0955
     22 C         139.9016  139.4981  165.1794 C.ar    1  UNL1       -0.0022
     23 C         139.9390  138.1814  164.4618 C.ar    1  UNL1       -0.0025
     24 C         139.0388  137.0636  164.8980 C.ar    1  UNL1        0.0020
     25 C         138.1012  137.2627  166.0518 C.ar    1  UNL1        0.0296
     26 C         138.0638  138.5793  166.7694 C.ar    1  UNL1        0.1399
     27 F         137.1261  138.7783  167.9232 F       1  UNL1       -0.2042
     28 C         138.9639  139.6971  166.3332 C.ar    1  UNL1        0.0270
     29 N         141.6909  140.4397  163.5477 N.am    1  UNL1       -0.3022
     30 C         141.2381  140.9165  162.1995 C.2     1  UNL1        0.2225
     31 O         139.8963  141.5694  162.0466 O.2     1  UNL1       -0.2751
     32 H         142.5715  140.0112  163.6481 H       1  UNL1        0.1497
     33 C         142.1271  140.7404  161.0042 C.3     1  UNL1        0.0869
     34 C         142.3236  139.3772  160.4101 C.3     1  UNL1        0.0736
     35 C         143.2127  139.2012  159.2147 C.3     1  UNL1        0.2560
     36 S         143.9051  140.3883  158.6136 S.O     1  UNL1        0.0304
     37 O         144.7940  140.2122  157.4184 O.co2   1  UNL1       -0.6813
     38 C         143.7084  141.7515  159.2079 C.3     1  UNL1        0.2560
     39 C         142.8195  141.9275  160.4031 C.3     1  UNL1        0.0736
@<TRIPOS>UNITY_ATOM_ATTR
36 1
charge 1
37 1
charge -1
@<TRIPOS>BOND
     1    11    12    1
     2    12    13   ar
     3    13    14   ar
     4    14    15   ar
     5    15    16   ar
     6    16    17   ar
     7    17    18   ar
     8    18    19   ar
     9    19    20   ar
    10    20     3    1
    11     3     4    1
    12     5     4    1
    13     5     6    1
    14     6     7    1
    15     8     7    1
    16     8     9    1
    17     8    10    1
    18    10     2    1
    19     2     1    1
    20    21     1    1
    21    21    29    1
    22    29    30   am
    23    30    31    2
    24    30    33    1
    25    33    34    1
    26    34    35    1
    27    35    36    1
    28    36    37    2
    29    36    38    1
    30    38    39    1
    31    21    22    1
    32    22    23   ar
    33    23    24   ar
    34    24    25   ar
    35    25    26   ar
    36    26    27    1
    37    26    28   ar
    38    20    12   ar
    39     9     3    1
    40    39    33    1
    41    28    22   ar
    42    19    14   ar
    43    10     5    1
    44    29    32    1
