@<TRIPOS>MOLECULE
*****
 29 31 0 0 0
SMALL
GASTEIGER

@<TRIPOS>ATOM
      1 N         140.9290  138.4355  161.1803 N.ar    1  UNL1       -0.2729
      2 C         140.2296  138.5987  159.8634 C.ar    1  UNL1        0.0860
      3 C         140.9779  138.3712  158.5835 C.ar    1  UNL1        0.0561
      4 C         142.4256  137.9805  158.6204 C.ar    1  UNL1        0.1453
      5 C         143.1250  137.8174  159.9372 C.ar    1  UNL1        0.0980
      6 C         142.3767  138.0449  161.2172 C.ar    1  UNL1        0.2679
      7 O         143.0762  137.8817  162.5341 O.2     1  UNL1       -0.2665
      8 C         138.6840  139.1180  165.0201 C.ar    1  UNL1        0.1387
      9 C         139.1533  137.7395  164.6605 C.ar    1  UNL1        0.0384
     10 C         139.9016  137.5120  163.3806 C.ar    1  UNL1        0.0207
     11 C         140.1806  138.6630  162.4602 C.ar    1  UNL1        0.0671
     12 C         139.7113  140.0416  162.8197 C.ar    1  UNL1        0.0207
     13 C         138.9630  140.2691  164.0996 C.ar    1  UNL1        0.0384
     14 O         137.9356  139.3456  166.3000 O.3     1  UNL1       -0.4740
     15 C         138.6869  139.5393  167.5837 C.3     1  UNL1        0.2226
     16 C         140.0867  140.0778  167.5596 C.3     1  UNL1        0.1200
     17 N         140.3328  141.5382  167.7978 N.3     1  UNL1       -0.2696
     18 C         140.4234  143.4724  169.5300 C.3     1  UNL1        0.0188
     19 C         140.6440  142.0306  169.1801 C.3     1  UNL1        0.0722
     20 C         140.2675  142.5061  166.6538 C.3     1  UNL1        0.0722
     21 C         141.4223  142.6231  165.7035 C.3     1  UNL1        0.0188
     22 O         143.1740  137.7530  157.3404 O.3     1  UNL1       -0.4704
     23 C         142.5131  137.0319  156.2033 C.3     1  UNL1        0.2320
     24 C         142.4647  135.5327  156.1929 C.ar    1  UNL1        0.0212
     25 C         141.5111  134.8194  155.2807 C.ar    1  UNL1       -0.0007
     26 C         141.4627  133.3202  155.2703 C.ar    1  UNL1       -0.0002
     27 C         142.3679  132.5343  156.1721 C.ar    1  UNL1       -0.0000
     28 C         143.3214  133.2476  157.0842 C.ar    1  UNL1       -0.0002
     29 C         143.3698  134.7468  157.0946 C.ar    1  UNL1       -0.0007
@<TRIPOS>BOND
     1    18    19    1
     2    19    17    1
     3    17    20    1
     4    20    21    1
     5    17    16    1
     6    16    15    1
     7    15    14    1
     8    14     8    1
     9     8     9   ar
    10     9    10   ar
    11    10    11   ar
    12    11     1    1
    13     1     2   ar
    14     2     3   ar
    15     3     4   ar
    16     4    22    1
    17    22    23    1
    18    23    24    1
    19    24    25   ar
    20    25    26   ar
    21    26    27   ar
    22    27    28   ar
    23    28    29   ar
    24     4     5   ar
    25     5     6   ar
    26     6     7    2
    27    11    12   ar
    28    12    13   ar
    29    13     8   ar
    30     6     1   ar
    31    29    24   ar
@<TRIPOS>MOLECULE
*****
 29 31 0 0 0
SMALL
GASTEIGER

@<TRIPOS>ATOM
      1 N         140.7913  138.4554  160.8690 N.ar    1  UNL1       -0.2729
      2 C         140.0281  138.6123  159.5873 C.ar    1  UNL1        0.0860
      3 C         140.7045  138.3489  158.2746 C.ar    1  UNL1        0.0561
      4 C         142.1440  137.9287  158.2436 C.ar    1  UNL1        0.1453
      5 C         142.9072  137.7718  159.5253 C.ar    1  UNL1        0.0980
      6 C         142.2309  138.0352  160.8380 C.ar    1  UNL1        0.2679
      7 O         142.9942  137.8782  162.1197 O.2     1  UNL1       -0.2665
      8 C         138.7623  139.2454  164.8071 C.ar    1  UNL1        0.1387
      9 C         139.2624  140.3909  163.9780 C.ar    1  UNL1        0.0384
     10 C         139.9387  140.1276  162.6653 C.ar    1  UNL1        0.0207
     11 C         140.1150  138.7187  162.1817 C.ar    1  UNL1        0.0671
     12 C         139.6149  137.5731  163.0108 C.ar    1  UNL1        0.0207
     13 C         138.9385  137.8365  164.3235 C.ar    1  UNL1        0.0384
     14 O         138.0859  139.5087  166.1198 O.3     1  UNL1       -0.4740
     15 C         138.8806  139.4815  167.3917 C.3     1  UNL1        0.2226
     16 C         139.8454  140.5886  167.6971 C.3     1  UNL1        0.1200
     17 N         141.2033  140.5971  167.0597 N.3     1  UNL1       -0.2696
     18 C         142.4148  138.9041  165.5054 C.3     1  UNL1        0.0188
     19 C         141.9523  139.3109  166.8731 C.3     1  UNL1        0.0722
     20 C         141.8123  141.8918  166.6091 C.3     1  UNL1        0.0722
     21 C         143.1175  142.3490  167.1900 C.3     1  UNL1        0.0188
     22 O         142.8204  137.6654  156.9308 O.3     1  UNL1       -0.4704
     23 C         142.1913  136.7353  155.9363 C.3     1  UNL1        0.2320
     24 C         142.3383  135.2515  156.0999 C.ar    1  UNL1        0.0212
     25 C         141.4794  134.3197  155.2972 C.ar    1  UNL1       -0.0007
     26 C         141.6263  132.8359  155.4608 C.ar    1  UNL1       -0.0002
     27 C         142.6321  132.2839  156.4271 C.ar    1  UNL1       -0.0000
     28 C         143.4909  133.2156  157.2298 C.ar    1  UNL1       -0.0002
     29 C         143.3440  134.6994  157.0662 C.ar    1  UNL1       -0.0007
@<TRIPOS>BOND
     1    18    19    1
     2    19    17    1
     3    17    20    1
     4    20    21    1
     5    17    16    1
     6    16    15    1
     7    15    14    1
     8    14     8    1
     9     8     9   ar
    10     9    10   ar
    11    10    11   ar
    12    11     1    1
    13     1     2   ar
    14     2     3   ar
    15     3     4   ar
    16     4    22    1
    17    22    23    1
    18    23    24    1
    19    24    25   ar
    20    25    26   ar
    21    26    27   ar
    22    27    28   ar
    23    28    29   ar
    24     4     5   ar
    25     5     6   ar
    26     6     7    2
    27    11    12   ar
    28    12    13   ar
    29    13     8   ar
    30     6     1   ar
    31    29    24   ar
@<TRIPOS>MOLECULE
*****
 29 31 0 0 0
SMALL
GASTEIGER

@<TRIPOS>ATOM
      1 N         140.9402  138.4436  161.2242 N.ar    1  UNL1       -0.2729
      2 C         142.3636  137.9760  161.1517 C.ar    1  UNL1        0.0860
      3 C         143.0022  137.7210  159.8186 C.ar    1  UNL1        0.0561
      4 C         142.2175  137.9334  158.5581 C.ar    1  UNL1        0.1453
      5 C         140.7941  138.4010  158.6306 C.ar    1  UNL1        0.0980
      6 C         140.1554  138.6561  159.9637 C.ar    1  UNL1        0.2679
      7 O         138.7320  139.1236  160.0362 O.2     1  UNL1       -0.2665
      8 C         139.0243  139.2089  165.2234 C.ar    1  UNL1        0.1387
      9 C         139.2913  137.8021  164.7766 C.ar    1  UNL1        0.0384
     10 C         139.9299  137.5470  163.4436 C.ar    1  UNL1        0.0207
     11 C         140.3015  138.6987  162.5573 C.ar    1  UNL1        0.0671
     12 C         140.0345  140.1054  163.0041 C.ar    1  UNL1        0.0207
     13 C         139.3959  140.3605  164.3372 C.ar    1  UNL1        0.0384
     14 O         138.3856  139.4640  166.5565 O.3     1  UNL1       -0.4740
     15 C         139.2417  139.6914  167.7670 C.3     1  UNL1        0.2226
     16 C         140.2985  140.7557  167.7489 C.3     1  UNL1        0.1200
     17 N         141.7487  140.3724  167.7309 N.3     1  UNL1       -0.2696
     18 C         142.3713  139.0229  169.8618 C.3     1  UNL1        0.0188
     19 C         142.5096  140.2554  169.0182 C.3     1  UNL1        0.0722
     20 C         142.4378  140.1061  166.4254 C.3     1  UNL1        0.0722
     21 C         142.7550  138.6976  166.0184 C.3     1  UNL1        0.0188
     22 O         142.8561  137.6783  157.2250 O.3     1  UNL1       -0.4704
     23 C         142.1557  136.8262  156.2086 C.3     1  UNL1        0.2320
     24 C         142.2991  135.3337  156.2542 C.ar    1  UNL1        0.0212
     25 C         143.3020  134.7044  157.1753 C.ar    1  UNL1       -0.0007
     26 C         143.4454  133.2120  157.2208 C.ar    1  UNL1       -0.0002
     27 C         142.5859  132.3489  156.3454 C.ar    1  UNL1       -0.0000
     28 C         141.5831  132.9782  155.4244 C.ar    1  UNL1       -0.0002
     29 C         141.4397  134.4706  155.3788 C.ar    1  UNL1       -0.0007
@<TRIPOS>BOND
     1    18    19    1
     2    19    17    1
     3    17    20    1
     4    20    21    1
     5    17    16    1
     6    16    15    1
     7    15    14    1
     8    14     8    1
     9     8     9   ar
    10     9    10   ar
    11    10    11   ar
    12    11     1    1
    13     1     2   ar
    14     2     3   ar
    15     3     4   ar
    16     4    22    1
    17    22    23    1
    18    23    24    1
    19    24    25   ar
    20    25    26   ar
    21    26    27   ar
    22    27    28   ar
    23    28    29   ar
    24     4     5   ar
    25     5     6   ar
    26     6     7    2
    27    11    12   ar
    28    12    13   ar
    29    13     8   ar
    30     6     1   ar
    31    29    24   ar
@<TRIPOS>MOLECULE
*****
 29 31 0 0 0
SMALL
GASTEIGER

@<TRIPOS>ATOM
      1 N         140.3205  138.5229  158.5876 N.ar    1  UNL1       -0.2729
      2 C         139.6563  137.9484  157.3716 C.ar    1  UNL1        0.0860
      3 C         140.4570  137.1490  156.3868 C.ar    1  UNL1        0.0561
      4 C         141.9219  136.9242  156.6179 C.ar    1  UNL1        0.1453
      5 C         142.5861  137.4988  157.8339 C.ar    1  UNL1        0.0980
      6 C         141.7854  138.2981  158.8188 C.ar    1  UNL1        0.2679
      7 O         142.4497  138.8727  160.0348 O.2     1  UNL1       -0.2665
      8 C         137.9184  140.9209  161.5422 C.ar    1  UNL1        0.1387
      9 C         138.5300  141.5951  160.3500 C.ar    1  UNL1        0.0384
     10 C         139.3307  140.7957  159.3651 C.ar    1  UNL1        0.0207
     11 C         139.5198  139.3222  159.5725 C.ar    1  UNL1        0.0671
     12 C         138.9082  138.6481  160.7647 C.ar    1  UNL1        0.0207
     13 C         138.1075  139.4474  161.7495 C.ar    1  UNL1        0.0384
     14 O         137.1177  141.7203  162.5270 O.3     1  UNL1       -0.4740
     15 C         137.7902  142.7632  163.3696 C.3     1  UNL1        0.2226
     16 C         137.9136  144.1703  162.8646 C.3     1  UNL1        0.1200
     17 N         139.2050  144.9155  163.0290 N.3     1  UNL1       -0.2696
     18 C         140.2027  145.4949  160.7012 C.3     1  UNL1        0.0188
     19 C         139.6170  145.9360  162.0098 C.3     1  UNL1        0.0722
     20 C         140.0844  144.6403  164.2127 C.3     1  UNL1        0.0722
     21 C         141.5764  144.6871  164.0655 C.3     1  UNL1        0.0188
     22 O         142.7226  136.1249  155.6331 O.3     1  UNL1       -0.4704
     23 C         142.4355  134.6651  155.4421 C.3     1  UNL1        0.2320
     24 C         143.3492  133.6365  156.0397 C.ar    1  UNL1        0.0212
     25 C         143.6723  132.3863  155.2763 C.ar    1  UNL1       -0.0007
     26 C         144.5860  131.3577  155.8739 C.ar    1  UNL1       -0.0002
     27 C         145.1766  131.5793  157.2349 C.ar    1  UNL1       -0.0000
     28 C         144.8535  132.8295  157.9982 C.ar    1  UNL1       -0.0002
     29 C         143.9398  133.8581  157.4006 C.ar    1  UNL1       -0.0007
@<TRIPOS>BOND
     1    18    19    1
     2    19    17    1
     3    17    20    1
     4    20    21    1
     5    17    16    1
     6    16    15    1
     7    15    14    1
     8    14     8    1
     9     8     9   ar
    10     9    10   ar
    11    10    11   ar
    12    11     1    1
    13     1     2   ar
    14     2     3   ar
    15     3     4   ar
    16     4    22    1
    17    22    23    1
    18    23    24    1
    19    24    25   ar
    20    25    26   ar
    21    26    27   ar
    22    27    28   ar
    23    28    29   ar
    24     4     5   ar
    25     5     6   ar
    26     6     7    2
    27    11    12   ar
    28    12    13   ar
    29    13     8   ar
    30     6     1   ar
    31    29    24   ar
@<TRIPOS>MOLECULE
*****
 29 31 0 0 0
SMALL
GASTEIGER

@<TRIPOS>ATOM
      1 N         139.6496  143.6603  160.1601 N.ar    1  UNL1       -0.2729
      2 C         139.4387  142.9264  158.8690 C.ar    1  UNL1        0.0860
      3 C         139.7020  143.6154  157.5629 C.ar    1  UNL1        0.0561
      4 C         140.1762  145.0383  157.5478 C.ar    1  UNL1        0.1453
      5 C         140.3872  145.7723  158.8388 C.ar    1  UNL1        0.0980
      6 C         140.1239  145.0833  160.1449 C.ar    1  UNL1        0.2679
      7 O         140.3349  145.8173  161.4360 O.2     1  UNL1       -0.2665
      8 C         138.8598  141.5934  164.0784 C.ar    1  UNL1        0.1387
      9 C         140.2141  141.4994  163.4406 C.ar    1  UNL1        0.0384
     10 C         140.4774  142.1884  162.1344 C.ar    1  UNL1        0.0207
     11 C         139.3864  142.9714  161.4662 C.ar    1  UNL1        0.0671
     12 C         138.0320  143.0653  162.1041 C.ar    1  UNL1        0.0207
     13 C         137.7688  142.3763  163.4102 C.ar    1  UNL1        0.0384
     14 O         138.5965  140.9044  165.3846 O.3     1  UNL1       -0.4740
     15 C         138.2858  139.4372  165.4093 C.3     1  UNL1        0.2226
     16 C         139.3967  138.4336  165.3169 C.3     1  UNL1        0.1200
     17 N         139.7036  137.7731  164.0054 N.3     1  UNL1       -0.2696
     18 C         138.4378  138.6616  161.9178 C.3     1  UNL1        0.0188
     19 C         138.6251  137.6143  162.9752 C.3     1  UNL1        0.0722
     20 C         141.0890  137.2716  163.7244 C.3     1  UNL1        0.0722
     21 C         141.8786  137.8472  162.5862 C.3     1  UNL1        0.0188
     22 O         140.4395  145.7273  156.2417 O.3     1  UNL1       -0.4704
     23 C         139.3075  146.3536  155.4825 C.3     1  UNL1        0.2320
     24 C         139.1591  147.8460  155.4531 C.ar    1  UNL1        0.0212
     25 C         139.6486  148.6251  154.2684 C.ar    1  UNL1       -0.0007
     26 C         139.5002  150.1175  154.2390 C.ar    1  UNL1       -0.0002
     27 C         138.8623  150.8307  155.3943 C.ar    1  UNL1       -0.0000
     28 C         138.3729  150.0515  156.5789 C.ar    1  UNL1       -0.0002
     29 C         138.5213  148.5591  156.6083 C.ar    1  UNL1       -0.0007
@<TRIPOS>BOND
     1    18    19    1
     2    19    17    1
     3    17    20    1
     4    20    21    1
     5    17    16    1
     6    16    15    1
     7    15    14    1
     8    14     8    1
     9     8     9   ar
    10     9    10   ar
    11    10    11   ar
    12    11     1    1
    13     1     2   ar
    14     2     3   ar
    15     3     4   ar
    16     4    22    1
    17    22    23    1
    18    23    24    1
    19    24    25   ar
    20    25    26   ar
    21    26    27   ar
    22    27    28   ar
    23    28    29   ar
    24     4     5   ar
    25     5     6   ar
    26     6     7    2
    27    11    12   ar
    28    12    13   ar
    29    13     8   ar
    30     6     1   ar
    31    29    24   ar
@<TRIPOS>MOLECULE
*****
 29 31 0 0 0
SMALL
GASTEIGER

@<TRIPOS>ATOM
      1 N         140.7851  138.5255  160.9978 N.ar    1  UNL1       -0.2729
      2 C         142.1853  138.0599  160.7280 C.ar    1  UNL1        0.0860
      3 C         142.6520  137.8653  159.3158 C.ar    1  UNL1        0.0561
      4 C         141.7185  138.1363  158.1734 C.ar    1  UNL1        0.1453
      5 C         140.3184  138.6019  158.4431 C.ar    1  UNL1        0.0980
      6 C         139.8517  138.7965  159.8553 C.ar    1  UNL1        0.2679
      7 O         138.4515  139.2621  160.1250 O.2     1  UNL1       -0.2665
      8 C         139.3850  139.1092  165.2344 C.ar    1  UNL1        0.1387
      9 C         140.1988  140.1736  164.5601 C.ar    1  UNL1        0.0384
     10 C         140.6655  139.9790  163.1479 C.ar    1  UNL1        0.0207
     11 C         140.3184  138.7201  162.4100 C.ar    1  UNL1        0.0671
     12 C         139.5046  137.6557  163.0843 C.ar    1  UNL1        0.0207
     13 C         139.0379  137.8503  164.4965 C.ar    1  UNL1        0.0384
     14 O         138.9183  139.3038  166.6466 O.3     1  UNL1       -0.4740
     15 C         139.8194  139.9593  167.6507 C.3     1  UNL1        0.2226
     16 C         139.3115  140.2622  169.0292 C.3     1  UNL1        0.1200
     17 N         140.1775  141.0084  170.0005 N.3     1  UNL1       -0.2696
     18 C         142.3145  139.5423  169.8177 C.3     1  UNL1        0.0188
     19 C         141.3397  140.3193  170.6519 C.3     1  UNL1        0.0722
     20 C         139.8812  142.4436  170.3202 C.3     1  UNL1        0.0722
     21 C         140.4183  143.5342  169.4413 C.3     1  UNL1        0.0188
     22 O         142.1852  137.9417  156.7612 O.3     1  UNL1       -0.4704
     23 C         143.2337  136.9143  156.4526 C.3     1  UNL1        0.2320
     24 C         142.8447  135.4772  156.2699 C.ar    1  UNL1        0.0212
     25 C         141.7251  135.1157  155.3394 C.ar    1  UNL1       -0.0007
     26 C         141.3361  133.6786  155.1568 C.ar    1  UNL1       -0.0002
     27 C         142.0667  132.6030  155.9047 C.ar    1  UNL1       -0.0000
     28 C         143.1863  132.9645  156.8351 C.ar    1  UNL1       -0.0002
     29 C         143.5753  134.4016  157.0178 C.ar    1  UNL1       -0.0007
@<TRIPOS>BOND
     1    18    19    1
     2    19    17    1
     3    17    20    1
     4    20    21    1
     5    17    16    1
     6    16    15    1
     7    15    14    1
     8    14     8    1
     9     8     9   ar
    10     9    10   ar
    11    10    11   ar
    12    11     1    1
    13     1     2   ar
    14     2     3   ar
    15     3     4   ar
    16     4    22    1
    17    22    23    1
    18    23    24    1
    19    24    25   ar
    20    25    26   ar
    21    26    27   ar
    22    27    28   ar
    23    28    29   ar
    24     4     5   ar
    25     5     6   ar
    26     6     7    2
    27    11    12   ar
    28    12    13   ar
    29    13     8   ar
    30     6     1   ar
    31    29    24   ar
@<TRIPOS>MOLECULE
*****
 29 31 0 0 0
SMALL
GASTEIGER

@<TRIPOS>ATOM
      1 N         140.3479  138.4831  158.7634 N.ar    1  UNL1       -0.2729
      2 C         139.7170  137.9287  157.5206 C.ar    1  UNL1        0.0860
      3 C         140.5521  137.1776  156.5265 C.ar    1  UNL1        0.0561
      4 C         142.0182  136.9810  156.7751 C.ar    1  UNL1        0.1453
      5 C         142.6491  137.5354  158.0178 C.ar    1  UNL1        0.0980
      6 C         141.8140  138.2865  159.0120 C.ar    1  UNL1        0.2679
      7 O         142.4449  138.8409  160.2548 O.2     1  UNL1       -0.2665
      8 C         137.8423  140.7363  161.7459 C.ar    1  UNL1        0.1387
      9 C         138.0934  139.2695  161.9334 C.ar    1  UNL1        0.0384
     10 C         138.9285  138.5184  160.9392 C.ar    1  UNL1        0.0207
     11 C         139.5127  139.2342  159.7575 C.ar    1  UNL1        0.0671
     12 C         139.2616  140.7011  159.5701 C.ar    1  UNL1        0.0207
     13 C         138.4265  141.4521  160.5642 C.ar    1  UNL1        0.0384
     14 O         137.0071  141.4874  162.7400 O.3     1  UNL1       -0.4740
     15 C         137.6685  142.3031  163.8111 C.3     1  UNL1        0.2226
     16 C         139.1507  142.2059  164.0201 C.3     1  UNL1        0.1200
     17 N         139.7211  141.0838  164.8361 N.3     1  UNL1       -0.2696
     18 C         138.3028  139.1071  165.7476 C.3     1  UNL1        0.0188
     19 C         138.9077  140.4668  165.9350 C.3     1  UNL1        0.0722
     20 C         141.1048  140.5788  164.5531 C.3     1  UNL1        0.0722
     21 C         141.5258  140.2955  163.1415 C.3     1  UNL1        0.0188
     22 O         142.8534  136.2299  155.7809 O.3     1  UNL1       -0.4704
     23 C         142.5311  134.8010  155.4580 C.3     1  UNL1        0.2320
     24 C         143.3856  133.6970  156.0066 C.ar    1  UNL1        0.0212
     25 C         143.9804  133.8198  157.3782 C.ar    1  UNL1       -0.0007
     26 C         144.8349  132.7158  157.9267 C.ar    1  UNL1       -0.0002
     27 C         145.0945  131.4889  157.1037 C.ar    1  UNL1       -0.0000
     28 C         144.4997  131.3660  155.7322 C.ar    1  UNL1       -0.0002
     29 C         143.6452  132.4701  155.1836 C.ar    1  UNL1       -0.0007
@<TRIPOS>BOND
     1    18    19    1
     2    19    17    1
     3    17    20    1
     4    20    21    1
     5    17    16    1
     6    16    15    1
     7    15    14    1
     8    14     8    1
     9     8     9   ar
    10     9    10   ar
    11    10    11   ar
    12    11     1    1
    13     1     2   ar
    14     2     3   ar
    15     3     4   ar
    16     4    22    1
    17    22    23    1
    18    23    24    1
    19    24    25   ar
    20    25    26   ar
    21    26    27   ar
    22    27    28   ar
    23    28    29   ar
    24     4     5   ar
    25     5     6   ar
    26     6     7    2
    27    11    12   ar
    28    12    13   ar
    29    13     8   ar
    30     6     1   ar
    31    29    24   ar
@<TRIPOS>MOLECULE
*****
 29 31 0 0 0
SMALL
GASTEIGER

@<TRIPOS>ATOM
      1 N         141.5783  144.3476  159.7024 N.ar    1  UNL1       -0.2729
      2 C         142.4938  143.9393  158.5866 C.ar    1  UNL1        0.0860
      3 C         142.3320  144.5451  157.2240 C.ar    1  UNL1        0.0561
      4 C         141.2548  145.5593  156.9771 C.ar    1  UNL1        0.1453
      5 C         140.3392  145.9675  158.0929 C.ar    1  UNL1        0.0980
      6 C         140.5010  145.3617  159.4556 C.ar    1  UNL1        0.2679
      7 O         139.5854  145.7700  160.5714 O.2     1  UNL1       -0.2665
      8 C         142.0635  142.5300  163.7903 C.ar    1  UNL1        0.1387
      9 C         141.4191  141.7401  162.6900 C.ar    1  UNL1        0.0384
     10 C         141.2574  142.3459  161.3274 C.ar    1  UNL1        0.0207
     11 C         141.7400  143.7417  161.0650 C.ar    1  UNL1        0.0671
     12 C         142.3844  144.5316  162.1654 C.ar    1  UNL1        0.0207
     13 C         142.5461  143.9258  163.5280 C.ar    1  UNL1        0.0384
     14 O         142.2252  141.9241  165.1530 O.3     1  UNL1       -0.4740
     15 C         141.1063  141.1293  165.7580 C.3     1  UNL1        0.2226
     16 C         139.8019  141.7959  166.0808 C.3     1  UNL1        0.1200
     17 N         138.6930  141.8029  165.0707 N.3     1  UNL1       -0.2696
     18 C         137.9843  140.3301  163.0511 C.3     1  UNL1        0.0188
     19 C         138.1631  140.5080  164.5297 C.3     1  UNL1        0.0722
     20 C         138.1140  143.1046  164.6015 C.3     1  UNL1        0.0722
     21 C         138.9188  144.3659  164.7099 C.3     1  UNL1        0.0188
     22 O         141.0930  146.1651  155.6145 O.3     1  UNL1       -0.4704
     23 C         139.7427  146.6300  155.1559 C.3     1  UNL1        0.2320
     24 C         139.4309  148.0965  155.1074 C.ar    1  UNL1        0.0212
     25 C         139.8861  148.9218  153.9404 C.ar    1  UNL1       -0.0007
     26 C         139.5743  150.3882  153.8918 C.ar    1  UNL1       -0.0002
     27 C         138.8074  151.0294  155.0103 C.ar    1  UNL1       -0.0000
     28 C         138.3523  150.2041  156.1772 C.ar    1  UNL1       -0.0002
     29 C         138.6641  148.7376  156.2257 C.ar    1  UNL1       -0.0007
@<TRIPOS>BOND
     1    18    19    1
     2    19    17    1
     3    17    20    1
     4    20    21    1
     5    17    16    1
     6    16    15    1
     7    15    14    1
     8    14     8    1
     9     8     9   ar
    10     9    10   ar
    11    10    11   ar
    12    11     1    1
    13     1     2   ar
    14     2     3   ar
    15     3     4   ar
    16     4    22    1
    17    22    23    1
    18    23    24    1
    19    24    25   ar
    20    25    26   ar
    21    26    27   ar
    22    27    28   ar
    23    28    29   ar
    24     4     5   ar
    25     5     6   ar
    26     6     7    2
    27    11    12   ar
    28    12    13   ar
    29    13     8   ar
    30     6     1   ar
    31    29    24   ar
@<TRIPOS>MOLECULE
*****
 29 31 0 0 0
SMALL
GASTEIGER

@<TRIPOS>ATOM
      1 N         141.6946  144.3067  160.3101 N.ar    1  UNL1       -0.2729
      2 C         142.4680  143.8176  159.1216 C.ar    1  UNL1        0.0860
      3 C         142.0840  144.2632  157.7417 C.ar    1  UNL1        0.0561
      4 C         140.9266  145.1979  157.5504 C.ar    1  UNL1        0.1453
      5 C         140.1532  145.6871  158.7388 C.ar    1  UNL1        0.0980
      6 C         140.5373  145.2415  160.1187 C.ar    1  UNL1        0.2679
      7 O         139.7638  145.7307  161.3072 O.2     1  UNL1       -0.2665
      8 C         142.8467  142.9700  164.4496 C.ar    1  UNL1        0.1387
      9 C         143.3615  144.2720  163.9115 C.ar    1  UNL1        0.0384
     10 C         142.9775  144.7176  162.5316 C.ar    1  UNL1        0.0207
     11 C         142.0787  143.8612  161.6899 C.ar    1  UNL1        0.0671
     12 C         141.5638  142.5592  162.2280 C.ar    1  UNL1        0.0207
     13 C         141.9478  142.1136  163.6079 C.ar    1  UNL1        0.0384
     14 O         143.2307  142.5244  165.8294 O.3     1  UNL1       -0.4740
     15 C         142.1677  142.2409  166.8490 C.3     1  UNL1        0.2226
     16 C         142.5217  141.5380  168.1260 C.3     1  UNL1        0.1200
     17 N         141.6047  141.6264  169.3098 N.3     1  UNL1       -0.2696
     18 C         140.3932  143.8696  169.8104 C.3     1  UNL1        0.0188
     19 C         141.5071  142.9044  170.0891 C.3     1  UNL1        0.0722
     20 C         140.7854  140.4369  169.7144 C.3     1  UNL1        0.0722
     21 C         139.3459  140.3426  169.3029 C.3     1  UNL1        0.0188
     22 O         140.5426  145.6435  156.1705 O.3     1  UNL1       -0.4704
     23 C         139.2037  146.2764  155.9322 C.3     1  UNL1        0.2320
     24 C         139.1032  147.7558  155.7054 C.ar    1  UNL1        0.0212
     25 C         138.5294  148.6408  156.7721 C.ar    1  UNL1       -0.0007
     26 C         138.4288  150.1201  156.5453 C.ar    1  UNL1       -0.0002
     27 C         138.9020  150.7145  155.2519 C.ar    1  UNL1       -0.0000
     28 C         139.4758  149.8295  154.1853 C.ar    1  UNL1       -0.0002
     29 C         139.5764  148.3502  154.4121 C.ar    1  UNL1       -0.0007
@<TRIPOS>BOND
     1    18    19    1
     2    19    17    1
     3    17    20    1
     4    20    21    1
     5    17    16    1
     6    16    15    1
     7    15    14    1
     8    14     8    1
     9     8     9   ar
    10     9    10   ar
    11    10    11   ar
    12    11     1    1
    13     1     2   ar
    14     2     3   ar
    15     3     4   ar
    16     4    22    1
    17    22    23    1
    18    23    24    1
    19    24    25   ar
    20    25    26   ar
    21    26    27   ar
    22    27    28   ar
    23    28    29   ar
    24     4     5   ar
    25     5     6   ar
    26     6     7    2
    27    11    12   ar
    28    12    13   ar
    29    13     8   ar
    30     6     1   ar
    31    29    24   ar
