@<TRIPOS>MOLECULE
*****
 33 36 0 0 0
SMALL
GASTEIGER

@<TRIPOS>ATOM
      1 C         140.3178  139.1456  160.0681 C.3     1  UNL1        0.1106
      2 C         139.7518  138.7879  158.7259 C.3     1  UNL1        0.0400
      3 C         140.6166  138.1127  157.7030 C.3     1  UNL1        0.0743
      4 N         142.0474  137.7951  158.0224 N.3     1  UNL1       -0.2648
      5 C         142.6133  138.1528  159.3648 C.3     1  UNL1        0.1098
      6 C         141.7486  138.8280  160.3876 C.3     1  UNL1        0.1948
      7 F         142.3145  139.1857  161.7300 F       1  UNL1       -0.2340
      8 C         139.0544  141.2551  160.9071 C.3     1  UNL1        0.1149
      9 N         139.4530  139.8208  161.0910 N.am    1  UNL1       -0.2763
     10 C         138.9868  139.0617  162.2979 C.2     1  UNL1        0.2301
     11 O         139.3854  137.6273  162.4818 O.2     1  UNL1       -0.2745
     12 C         138.1221  139.7368  163.3207 C.3     1  UNL1        0.1116
     13 C         138.5982  139.8671  164.7372 C.ar    1  UNL1       -0.0130
     14 C         138.0399  138.9697  165.8016 C.ar    1  UNL1       -0.0025
     15 C         138.5161  139.0999  167.2180 C.ar    1  UNL1        0.0180
     16 C         139.5505  140.1275  167.5701 C.ar    1  UNL1        0.1057
     17 C         140.1088  141.0249  166.5056 C.ar    1  UNL1        0.0180
     18 C         139.6327  140.8946  165.0892 C.ar    1  UNL1       -0.0025
     19 S         140.0267  140.2577  168.9865 S.O2    1  UNL1        0.0104
     20 C         140.5029  140.3880  170.4029 C.3     1  UNL1        0.1816
     21 O         141.3754  140.6910  168.4933 O.2     1  UNL1       -0.1686
     22 O         138.6780  139.8245  169.4797 O.2     1  UNL1       -0.1686
     23 C         142.9122  137.1199  156.9996 C.3     1  UNL1        0.1256
     24 C         142.7097  135.6667  156.6879 C.ar    1  UNL1        0.1044
     25 N         143.3791  134.5153  157.3780 N.ar    1  UNL1       -0.2412
     26 C         142.8854  133.2467  156.7479 C.ar    1  UNL1        0.0898
     27 C         143.1974  131.8046  157.0177 C.ar    1  UNL1        0.0492
     28 C         142.5348  130.7298  156.2080 C.ar    1  UNL1        0.1417
     29 F         142.8467  129.2875  156.4778 F       1  UNL1       -0.2041
     30 C         141.5603  131.0971  155.1284 C.ar    1  UNL1        0.0302
     31 C         141.2484  132.5393  154.8586 C.ar    1  UNL1        0.0103
     32 C         141.9110  133.6141  155.6684 C.ar    1  UNL1        0.0484
     33 S         141.8024  135.1097  155.6313 S.2     1  UNL1       -0.0694
@<TRIPOS>BOND
     1     8     9    1
     2     9    10   am
     3    10    11    2
     4    10    12    1
     5    12    13    1
     6    13    14   ar
     7    14    15   ar
     8    15    16   ar
     9    16    19    1
    10    19    20    1
    11    19    21    2
    12    19    22    2
    13    16    17   ar
    14    17    18   ar
    15     1     9    1
    16     1     2    1
    17     2     3    1
    18     3     4    1
    19     4    23    1
    20    23    24    1
    21    24    25   ar
    22    25    26   ar
    23    26    27   ar
    24    27    28   ar
    25    28    29    1
    26    28    30   ar
    27    30    31   ar
    28    31    32   ar
    29    32    33   ar
    30     4     5    1
    31     5     6    1
    32     6     7    1
    33    18    13   ar
    34     6     1    1
    35    33    24   ar
    36    32    26   ar
@<TRIPOS>MOLECULE
*****
 33 36 0 0 0
SMALL
GASTEIGER

@<TRIPOS>ATOM
      1 C         140.1144  138.7457  162.3163 C.3     1  UNL1        0.1106
      2 C         141.4992  139.1080  161.8679 C.3     1  UNL1        0.0400
      3 C         141.8393  139.1052  160.4069 C.3     1  UNL1        0.0743
      4 N         140.7946  138.7402  159.3944 N.3     1  UNL1       -0.2648
      5 C         139.4097  138.3779  159.8428 C.3     1  UNL1        0.1098
      6 C         139.0697  138.3806  161.3037 C.3     1  UNL1        0.1948
      7 F         137.6848  138.0184  161.7522 F       1  UNL1       -0.2340
      8 C         140.2985  137.6642  164.6714 C.3     1  UNL1        0.1149
      9 N         139.7743  138.7485  163.7773 N.am    1  UNL1       -0.2763
     10 C         138.9101  139.8356  164.3440 C.2     1  UNL1        0.2301
     11 O         138.3860  140.9200  163.4498 O.2     1  UNL1       -0.2745
     12 C         138.5700  139.8384  165.8049 C.3     1  UNL1        0.1116
     13 C         139.4653  140.5410  166.7821 C.ar    1  UNL1       -0.0130
     14 C         140.1035  141.8465  166.4100 C.ar    1  UNL1       -0.0025
     15 C         140.9988  142.5490  167.3872 C.ar    1  UNL1        0.0180
     16 C         141.2558  141.9462  168.7364 C.ar    1  UNL1        0.1057
     17 C         140.6176  140.6408  169.1085 C.ar    1  UNL1        0.0180
     18 C         139.7224  139.9382  168.1313 C.ar    1  UNL1       -0.0025
     19 S         142.1511  142.6488  169.7136 S.O2    1  UNL1        0.0104
     20 C         143.0464  143.3514  170.6907 C.3     1  UNL1        0.1816
     21 O         143.2795  142.5823  168.7275 O.2     1  UNL1       -0.1686
     22 O         141.0227  142.7153  170.6996 O.2     1  UNL1       -0.1686
     23 C         141.1346  138.7374  157.9335 C.3     1  UNL1        0.1256
     24 C         141.5929  137.4713  157.2725 C.ar    1  UNL1        0.1044
     25 N         142.7921  136.6581  157.6607 N.ar    1  UNL1       -0.2412
     26 C         142.8729  135.4803  156.7354 C.ar    1  UNL1        0.0898
     27 C         143.8445  134.3413  156.6430 C.ar    1  UNL1        0.0492
     28 C         143.6667  133.2874  155.5905 C.ar    1  UNL1        0.1417
     29 F         144.6383  132.1483  155.4981 F       1  UNL1       -0.2041
     30 C         142.5173  133.3725  154.6305 C.ar    1  UNL1        0.0302
     31 C         141.5458  134.5116  154.7228 C.ar    1  UNL1        0.0103
     32 C         141.7235  135.5655  155.7753 C.ar    1  UNL1        0.0484
     33 S         140.9325  136.7959  156.1073 S.2     1  UNL1       -0.0694
@<TRIPOS>BOND
     1     8     9    1
     2     9    10   am
     3    10    11    2
     4    10    12    1
     5    12    13    1
     6    13    14   ar
     7    14    15   ar
     8    15    16   ar
     9    16    19    1
    10    19    20    1
    11    19    21    2
    12    19    22    2
    13    16    17   ar
    14    17    18   ar
    15     1     9    1
    16     1     2    1
    17     2     3    1
    18     3     4    1
    19     4    23    1
    20    23    24    1
    21    24    25   ar
    22    25    26   ar
    23    26    27   ar
    24    27    28   ar
    25    28    29    1
    26    28    30   ar
    27    30    31   ar
    28    31    32   ar
    29    32    33   ar
    30     4     5    1
    31     5     6    1
    32     6     7    1
    33    18    13   ar
    34     6     1    1
    35    33    24   ar
    36    32    26   ar
@<TRIPOS>MOLECULE
*****
 33 36 0 0 0
SMALL
GASTEIGER

@<TRIPOS>ATOM
      1 C         139.6103  140.4008  160.1502 C.3     1  UNL1        0.1106
      2 C         138.7709  139.8983  159.0132 C.3     1  UNL1        0.0400
      3 C         139.4270  139.3122  157.7983 C.3     1  UNL1        0.0743
      4 N         140.9226  139.2286  157.7204 N.3     1  UNL1       -0.2648
      5 C         141.7621  139.7312  158.8574 C.3     1  UNL1        0.1098
      6 C         141.1060  140.3172  160.0723 C.3     1  UNL1        0.1948
      7 F         141.9455  140.8198  161.2093 F       1  UNL1       -0.2340
      8 C         138.8905  142.4754  161.5387 C.3     1  UNL1        0.1149
      9 N         138.9542  140.9869  161.3652 N.am    1  UNL1       -0.2763
     10 C         138.3617  140.0844  162.4065 C.2     1  UNL1        0.2301
     11 O         138.4254  138.5957  162.2330 O.2     1  UNL1       -0.2745
     12 C         137.7056  140.6704  163.6214 C.3     1  UNL1        0.1116
     13 C         138.3594  140.5370  164.9648 C.ar    1  UNL1       -0.0130
     14 C         139.3462  141.5690  165.4244 C.ar    1  UNL1       -0.0025
     15 C         140.0001  141.4357  166.7678 C.ar    1  UNL1        0.0180
     16 C         139.6671  140.2704  167.6517 C.ar    1  UNL1        0.1057
     17 C         138.6803  139.2384  167.1921 C.ar    1  UNL1        0.0180
     18 C         138.0264  139.3718  165.8487 C.ar    1  UNL1       -0.0025
     19 S         140.3209  140.1371  168.9951 S.O2    1  UNL1        0.0104
     20 C         140.9747  140.0037  170.3385 C.3     1  UNL1        0.1816
     21 O         139.0109  140.4352  169.6622 O.2     1  UNL1       -0.1686
     22 O         141.6309  139.8389  168.3279 O.2     1  UNL1       -0.1686
     23 C         141.5788  138.6426  156.5055 C.3     1  UNL1        0.1256
     24 C         141.8542  137.1696  156.4388 C.ar    1  UNL1        0.1044
     25 N         141.1169  136.1720  155.5954 N.ar    1  UNL1       -0.2412
     26 C         141.7223  134.8214  155.8391 C.ar    1  UNL1        0.0898
     27 C         141.4050  133.4644  155.2844 C.ar    1  UNL1        0.0492
     28 C         142.1993  132.2702  155.7236 C.ar    1  UNL1        0.1417
     29 F         141.8821  130.9131  155.1688 F       1  UNL1       -0.2041
     30 C         143.3108  132.4330  156.7176 C.ar    1  UNL1        0.0302
     31 C         143.6280  133.7900  157.2724 C.ar    1  UNL1        0.0103
     32 C         142.8338  134.9843  156.8332 C.ar    1  UNL1        0.0484
     33 S         142.9153  136.4355  157.2038 S.2     1  UNL1       -0.0694
@<TRIPOS>BOND
     1     8     9    1
     2     9    10   am
     3    10    11    2
     4    10    12    1
     5    12    13    1
     6    13    14   ar
     7    14    15   ar
     8    15    16   ar
     9    16    19    1
    10    19    20    1
    11    19    21    2
    12    19    22    2
    13    16    17   ar
    14    17    18   ar
    15     1     9    1
    16     1     2    1
    17     2     3    1
    18     3     4    1
    19     4    23    1
    20    23    24    1
    21    24    25   ar
    22    25    26   ar
    23    26    27   ar
    24    27    28   ar
    25    28    29    1
    26    28    30   ar
    27    30    31   ar
    28    31    32   ar
    29    32    33   ar
    30     4     5    1
    31     5     6    1
    32     6     7    1
    33    18    13   ar
    34     6     1    1
    35    33    24   ar
    36    32    26   ar
@<TRIPOS>MOLECULE
*****
 33 36 0 0 0
SMALL
GASTEIGER

@<TRIPOS>ATOM
      1 C         143.2066  142.6614  160.3112 C.3     1  UNL1        0.1106
      2 C         141.7085  142.7376  160.3117 C.3     1  UNL1        0.0400
      3 C         140.9690  142.9707  159.0276 C.3     1  UNL1        0.0743
      4 N         141.7275  143.1275  157.7431 N.3     1  UNL1       -0.2648
      5 C         143.2256  143.0513  157.7427 C.3     1  UNL1        0.1098
      6 C         143.9651  142.8182  159.0267 C.3     1  UNL1        0.1948
      7 F         145.4632  142.7420  159.0263 F       1  UNL1       -0.2340
      8 C         144.4764  143.5931  162.3775 C.3     1  UNL1        0.1149
      9 N         143.9461  142.4283  161.5953 N.am    1  UNL1       -0.2763
     10 C         144.1553  141.0303  162.0971 C.2     1  UNL1        0.2301
     11 O         143.6250  139.8654  161.3149 O.2     1  UNL1       -0.2745
     12 C         144.8949  140.7971  163.3811 C.3     1  UNL1        0.1116
     13 C         144.1347  140.5924  164.6579 C.ar    1  UNL1       -0.0130
     14 C         143.8579  139.2032  165.1515 C.ar    1  UNL1       -0.0025
     15 C         143.0977  138.9985  166.4283 C.ar    1  UNL1        0.0180
     16 C         142.6143  140.1828  167.2115 C.ar    1  UNL1        0.1057
     17 C         142.8911  141.5720  166.7180 C.ar    1  UNL1        0.0180
     18 C         143.6513  141.7767  165.4412 C.ar    1  UNL1       -0.0025
     19 S         141.8542  139.9781  168.4883 S.O2    1  UNL1        0.0104
     20 C         141.0940  139.7733  169.7651 C.3     1  UNL1        0.1816
     21 O         142.9132  139.0297  168.9668 O.2     1  UNL1       -0.1686
     22 O         140.7951  140.9265  168.0099 O.2     1  UNL1       -0.1686
     23 C         140.9881  143.3606  156.4591 C.3     1  UNL1        0.1256
     24 C         140.5617  144.7480  156.0803 C.ar    1  UNL1        0.1044
     25 N         139.6633  145.6437  156.8806 N.ar    1  UNL1       -0.2412
     26 C         139.5053  146.9325  156.1297 C.ar    1  UNL1        0.0898
     27 C         138.7357  148.1836  156.4339 C.ar    1  UNL1        0.0492
     28 C         138.7669  149.3355  155.4736 C.ar    1  UNL1        0.1417
     29 F         137.9973  150.5866  155.7778 F       1  UNL1       -0.2041
     30 C         139.5676  149.2363  154.2091 C.ar    1  UNL1        0.0302
     31 C         140.3372  147.9852  153.9049 C.ar    1  UNL1        0.0103
     32 C         140.3060  146.8334  154.8651 C.ar    1  UNL1        0.0484
     33 S         140.9589  145.4833  154.8346 S.2     1  UNL1       -0.0694
@<TRIPOS>BOND
     1     8     9    1
     2     9    10   am
     3    10    11    2
     4    10    12    1
     5    12    13    1
     6    13    14   ar
     7    14    15   ar
     8    15    16   ar
     9    16    19    1
    10    19    20    1
    11    19    21    2
    12    19    22    2
    13    16    17   ar
    14    17    18   ar
    15     1     9    1
    16     1     2    1
    17     2     3    1
    18     3     4    1
    19     4    23    1
    20    23    24    1
    21    24    25   ar
    22    25    26   ar
    23    26    27   ar
    24    27    28   ar
    25    28    29    1
    26    28    30   ar
    27    30    31   ar
    28    31    32   ar
    29    32    33   ar
    30     4     5    1
    31     5     6    1
    32     6     7    1
    33    18    13   ar
    34     6     1    1
    35    33    24   ar
    36    32    26   ar
@<TRIPOS>MOLECULE
*****
 33 36 0 0 0
SMALL
GASTEIGER

@<TRIPOS>ATOM
      1 C         139.2566  142.7290  159.3844 C.3     1  UNL1        0.1106
      2 C         139.0220  143.4139  158.0707 C.3     1  UNL1        0.0400
      3 C         138.2544  142.7158  156.9874 C.3     1  UNL1        0.0743
      4 N         137.7215  141.3327  157.2179 N.3     1  UNL1       -0.2648
      5 C         137.9561  140.6478  158.5317 C.3     1  UNL1        0.1098
      6 C         138.7236  141.3460  159.6149 C.3     1  UNL1        0.1948
      7 F         138.9582  140.6611  160.9287 F       1  UNL1       -0.2340
      8 C         141.4918  143.6869  160.2990 C.3     1  UNL1        0.1149
      9 N         140.0241  143.4272  160.4677 N.am    1  UNL1       -0.2763
     10 C         139.3240  143.8656  161.7198 C.2     1  UNL1        0.2301
     11 O         137.8563  143.6058  161.8885 O.2     1  UNL1       -0.2745
     12 C         140.0915  144.5637  162.8030 C.3     1  UNL1        0.1116
     13 C         140.5965  143.7882  163.9835 C.ar    1  UNL1       -0.0130
     14 C         141.9755  143.1986  163.9593 C.ar    1  UNL1       -0.0025
     15 C         142.4805  142.4231  165.1398 C.ar    1  UNL1        0.0180
     16 C         141.6065  142.2372  166.3445 C.ar    1  UNL1        0.1057
     17 C         140.2275  142.8268  166.3688 C.ar    1  UNL1        0.0180
     18 C         139.7225  143.6023  165.1883 C.ar    1  UNL1       -0.0025
     19 S         142.1115  141.4617  167.5250 S.O2    1  UNL1        0.0104
     20 C         142.6165  140.6862  168.7055 C.3     1  UNL1        0.1816
     21 O         143.2676  142.4089  167.6527 O.2     1  UNL1       -0.1686
     22 O         140.9554  140.5146  167.3974 O.2     1  UNL1       -0.1686
     23 C         136.9539  140.6346  156.1347 C.3     1  UNL1        0.1256
     24 C         135.4547  140.6084  156.1752 C.ar    1  UNL1        0.1044
     25 N         134.6120  139.7852  157.1038 N.ar    1  UNL1       -0.2412
     26 C         133.1714  140.0689  156.7968 C.ar    1  UNL1        0.0898
     27 C         131.8970  139.5470  157.3911 C.ar    1  UNL1        0.0492
     28 C         130.5748  140.0236  156.8671 C.ar    1  UNL1        0.1417
     29 F         129.3002  139.5017  157.4614 F       1  UNL1       -0.2041
     30 C         130.5271  141.0222  155.7488 C.ar    1  UNL1        0.0302
     31 C         131.8016  141.5441  155.1545 C.ar    1  UNL1        0.0103
     32 C         133.1238  141.0675  155.6786 C.ar    1  UNL1        0.0484
     33 S         134.5349  141.4009  155.2944 S.2     1  UNL1       -0.0694
@<TRIPOS>BOND
     1     8     9    1
     2     9    10   am
     3    10    11    2
     4    10    12    1
     5    12    13    1
     6    13    14   ar
     7    14    15   ar
     8    15    16   ar
     9    16    19    1
    10    19    20    1
    11    19    21    2
    12    19    22    2
    13    16    17   ar
    14    17    18   ar
    15     1     9    1
    16     1     2    1
    17     2     3    1
    18     3     4    1
    19     4    23    1
    20    23    24    1
    21    24    25   ar
    22    25    26   ar
    23    26    27   ar
    24    27    28   ar
    25    28    29    1
    26    28    30   ar
    27    30    31   ar
    28    31    32   ar
    29    32    33   ar
    30     4     5    1
    31     5     6    1
    32     6     7    1
    33    18    13   ar
    34     6     1    1
    35    33    24   ar
    36    32    26   ar
@<TRIPOS>MOLECULE
*****
 33 36 0 0 0
SMALL
GASTEIGER

@<TRIPOS>ATOM
      1 C         138.8887  142.6322  159.7528 C.3     1  UNL1        0.1106
      2 C         138.1187  142.5006  158.4722 C.3     1  UNL1        0.0400
      3 C         138.6380  143.1353  157.2162 C.3     1  UNL1        0.0743
      4 N         139.9273  143.9017  157.2408 N.3     1  UNL1       -0.2648
      5 C         140.6972  144.0333  158.5214 C.3     1  UNL1        0.1098
      6 C         140.1779  143.3986  159.7774 C.3     1  UNL1        0.1948
      7 F         140.9478  143.5302  161.0580 F       1  UNL1       -0.2340
      8 C         138.3056  140.5032  161.1230 C.3     1  UNL1        0.1149
      9 N         138.3694  141.9975  161.0088 N.am    1  UNL1       -0.2763
     10 C         137.9139  142.8571  162.1505 C.2     1  UNL1        0.2301
     11 O         137.9777  144.3514  162.0363 O.2     1  UNL1       -0.2745
     12 C         137.3946  142.2225  163.4065 C.3     1  UNL1        0.1116
     13 C         138.3294  141.9364  164.5442 C.ar    1  UNL1       -0.0130
     14 C         138.3785  140.5641  165.1476 C.ar    1  UNL1       -0.0025
     15 C         139.3133  140.2780  166.2853 C.ar    1  UNL1        0.0180
     16 C         140.1991  141.3643  166.8195 C.ar    1  UNL1        0.1057
     17 C         140.1500  142.7366  166.2161 C.ar    1  UNL1        0.0180
     18 C         139.2152  143.0227  165.0784 C.ar    1  UNL1       -0.0025
     19 S         141.1339  141.0782  167.9572 S.O2    1  UNL1        0.0104
     20 C         142.0687  140.7922  169.0948 C.3     1  UNL1        0.1816
     21 O         141.9881  142.2413  167.5477 O.2     1  UNL1       -0.1686
     22 O         140.2797  139.9152  168.3667 O.2     1  UNL1       -0.1686
     23 C         140.4466  144.5364  155.9849 C.3     1  UNL1        0.1256
     24 C         140.1062  145.9627  155.6692 C.ar    1  UNL1        0.1044
     25 N         140.5564  146.7302  154.4616 N.ar    1  UNL1       -0.2412
     26 C         139.9843  148.1138  154.5518 C.ar    1  UNL1        0.0898
     27 C         140.0915  149.3052  153.6467 C.ar    1  UNL1        0.0492
     28 C         139.3948  150.5843  154.0051 C.ar    1  UNL1        0.1417
     29 F         139.5019  151.7757  153.1000 F       1  UNL1       -0.2041
     30 C         138.5910  150.6721  155.2685 C.ar    1  UNL1        0.0302
     31 C         138.4838  149.4807  156.1735 C.ar    1  UNL1        0.0103
     32 C         139.1805  148.2016  155.8152 C.ar    1  UNL1        0.0484
     33 S         139.2558  146.8722  156.5058 S.2     1  UNL1       -0.0694
@<TRIPOS>BOND
     1     8     9    1
     2     9    10   am
     3    10    11    2
     4    10    12    1
     5    12    13    1
     6    13    14   ar
     7    14    15   ar
     8    15    16   ar
     9    16    19    1
    10    19    20    1
    11    19    21    2
    12    19    22    2
    13    16    17   ar
    14    17    18   ar
    15     1     9    1
    16     1     2    1
    17     2     3    1
    18     3     4    1
    19     4    23    1
    20    23    24    1
    21    24    25   ar
    22    25    26   ar
    23    26    27   ar
    24    27    28   ar
    25    28    29    1
    26    28    30   ar
    27    30    31   ar
    28    31    32   ar
    29    32    33   ar
    30     4     5    1
    31     5     6    1
    32     6     7    1
    33    18    13   ar
    34     6     1    1
    35    33    24   ar
    36    32    26   ar
@<TRIPOS>MOLECULE
*****
 33 36 0 0 0
SMALL
GASTEIGER

@<TRIPOS>ATOM
      1 C         143.1908  139.7779  161.5729 C.3     1  UNL1        0.1106
      2 C         143.8396  140.2642  160.3110 C.3     1  UNL1        0.0400
      3 C         143.3267  139.8043  158.9785 C.3     1  UNL1        0.0743
      4 N         142.1649  138.8581  158.9081 N.3     1  UNL1       -0.2648
      5 C         141.5161  138.3718  160.1701 C.3     1  UNL1        0.1098
      6 C         142.0290  138.8317  161.5025 C.3     1  UNL1        0.1948
      7 F         141.3802  138.3454  162.7645 F       1  UNL1       -0.2340
      8 C         144.7429  139.4325  163.6277 C.3     1  UNL1        0.1149
      9 N         143.7038  140.2378  162.9054 N.am    1  UNL1       -0.2763
     10 C         143.1776  141.5031  163.5156 C.2     1  UNL1        0.2301
     11 O         142.1384  142.3084  162.7932 O.2     1  UNL1       -0.2745
     12 C         143.6905  141.9630  164.8480 C.3     1  UNL1        0.1116
     13 C         142.9875  141.5477  166.1063 C.ar    1  UNL1       -0.0130
     14 C         142.1385  140.3111  166.1179 C.ar    1  UNL1       -0.0025
     15 C         141.4356  139.8958  167.3762 C.ar    1  UNL1        0.0180
     16 C         141.5815  140.7170  168.6229 C.ar    1  UNL1        0.1057
     17 C         142.4305  141.9536  168.6113 C.ar    1  UNL1        0.0180
     18 C         143.1335  142.3689  167.3529 C.ar    1  UNL1       -0.0025
     19 S         140.8786  140.3017  169.8812 S.O2    1  UNL1        0.0104
     20 C         140.1756  139.8864  171.1395 C.3     1  UNL1        0.1816
     21 O         142.0193  140.8367  170.6951 O.2     1  UNL1       -0.1686
     22 O         139.7378  139.7667  169.0673 O.2     1  UNL1       -0.1686
     23 C         141.6519  138.3982  157.5757 C.3     1  UNL1        0.1256
     24 C         142.0775  137.0689  157.0263 C.ar    1  UNL1        0.1044
     25 N         143.1916  136.2133  157.5523 N.ar    1  UNL1       -0.2412
     26 C         143.2664  134.9773  156.7056 C.ar    1  UNL1        0.0898
     27 C         144.1689  133.7803  156.7546 C.ar    1  UNL1        0.0492
     28 C         144.0034  132.6749  155.7542 C.ar    1  UNL1        0.1417
     29 F         144.9060  131.4778  155.8031 F       1  UNL1       -0.2041
     30 C         142.9354  132.7666  154.7049 C.ar    1  UNL1        0.0302
     31 C         142.0329  133.9637  154.6560 C.ar    1  UNL1        0.0103
     32 C         142.1984  135.0690  155.6564 C.ar    1  UNL1        0.0484
     33 S         141.4636  136.3617  155.8546 S.2     1  UNL1       -0.0694
@<TRIPOS>BOND
     1     8     9    1
     2     9    10   am
     3    10    11    2
     4    10    12    1
     5    12    13    1
     6    13    14   ar
     7    14    15   ar
     8    15    16   ar
     9    16    19    1
    10    19    20    1
    11    19    21    2
    12    19    22    2
    13    16    17   ar
    14    17    18   ar
    15     1     9    1
    16     1     2    1
    17     2     3    1
    18     3     4    1
    19     4    23    1
    20    23    24    1
    21    24    25   ar
    22    25    26   ar
    23    26    27   ar
    24    27    28   ar
    25    28    29    1
    26    28    30   ar
    27    30    31   ar
    28    31    32   ar
    29    32    33   ar
    30     4     5    1
    31     5     6    1
    32     6     7    1
    33    18    13   ar
    34     6     1    1
    35    33    24   ar
    36    32    26   ar
@<TRIPOS>MOLECULE
*****
 33 36 0 0 0
SMALL
GASTEIGER

@<TRIPOS>ATOM
      1 C         142.3131  139.8144  156.8296 C.3     1  UNL1        0.1106
      2 C         141.8067  141.0942  156.2333 C.3     1  UNL1        0.0400
      3 C         141.8190  142.3560  157.0444 C.3     1  UNL1        0.0743
      4 N         142.3377  142.3379  158.4517 N.3     1  UNL1       -0.2648
      5 C         142.8441  141.0580  159.0480 C.3     1  UNL1        0.1098
      6 C         142.8318  139.7963  158.2369 C.3     1  UNL1        0.1948
      7 F         143.3382  138.5164  158.8332 F       1  UNL1       -0.2340
      8 C         143.3356  138.3346  154.9548 C.3     1  UNL1        0.1149
      9 N         142.3007  138.5526  156.0185 N.am    1  UNL1       -0.2763
     10 C         141.2536  137.5088  156.2713 C.2     1  UNL1        0.2301
     11 O         140.2187  137.7268  157.3351 O.2     1  UNL1       -0.2745
     12 C         141.2412  136.2470  155.4603 C.3     1  UNL1        0.1116
     13 C         141.9413  135.0217  155.9687 C.ar    1  UNL1       -0.0130
     14 C         143.0090  135.1476  157.0146 C.ar    1  UNL1       -0.0025
     15 C         143.7091  133.9223  157.5231 C.ar    1  UNL1        0.0180
     16 C         143.3414  132.5711  156.9857 C.ar    1  UNL1        0.1057
     17 C         142.2736  132.4451  155.9398 C.ar    1  UNL1        0.0180
     18 C         141.5735  133.6704  155.4313 C.ar    1  UNL1       -0.0025
     19 S         144.0414  131.3458  157.4942 S.O2    1  UNL1        0.0104
     20 C         144.7414  130.1205  158.0027 C.3     1  UNL1        0.1816
     21 O         142.9664  130.4849  156.8999 O.2     1  UNL1       -0.1686
     22 O         145.1164  132.2066  158.0886 O.2     1  UNL1       -0.1686
     23 C         142.3500  143.5996  159.2628 C.3     1  UNL1        0.1256
     24 C         141.3987  143.7625  160.4110 C.ar    1  UNL1        0.1044
     25 N         141.6820  144.4836  161.6954 N.ar    1  UNL1       -0.2412
     26 C         140.4554  144.3996  162.5546 C.ar    1  UNL1        0.0898
     27 C         140.1522  144.9272  163.9256 C.ar    1  UNL1        0.0492
     28 C         138.8076  144.6817  164.5432 C.ar    1  UNL1        0.1417
     29 F         138.5044  145.2093  165.9143 F       1  UNL1       -0.2041
     30 C         137.7660  143.9086  163.7899 C.ar    1  UNL1        0.0302
     31 C         138.0692  143.3811  162.4189 C.ar    1  UNL1        0.0103
     32 C         139.4138  143.6266  161.8012 C.ar    1  UNL1        0.0484
     33 S         139.9968  143.2328  160.4764 S.2     1  UNL1       -0.0694
@<TRIPOS>BOND
     1     8     9    1
     2     9    10   am
     3    10    11    2
     4    10    12    1
     5    12    13    1
     6    13    14   ar
     7    14    15   ar
     8    15    16   ar
     9    16    19    1
    10    19    20    1
    11    19    21    2
    12    19    22    2
    13    16    17   ar
    14    17    18   ar
    15     1     9    1
    16     1     2    1
    17     2     3    1
    18     3     4    1
    19     4    23    1
    20    23    24    1
    21    24    25   ar
    22    25    26   ar
    23    26    27   ar
    24    27    28   ar
    25    28    29    1
    26    28    30   ar
    27    30    31   ar
    28    31    32   ar
    29    32    33   ar
    30     4     5    1
    31     5     6    1
    32     6     7    1
    33    18    13   ar
    34     6     1    1
    35    33    24   ar
    36    32    26   ar
@<TRIPOS>MOLECULE
*****
 33 36 0 0 0
SMALL
GASTEIGER

@<TRIPOS>ATOM
      1 C         143.6553  140.3182  161.7319 C.3     1  UNL1        0.1106
      2 C         143.5851  141.8166  161.7324 C.3     1  UNL1        0.0400
      3 C         143.6251  142.5698  160.4358 C.3     1  UNL1        0.0743
      4 N         143.7353  141.8246  159.1387 N.3     1  UNL1       -0.2648
      5 C         143.8055  140.3262  159.1382 C.3     1  UNL1        0.1098
      6 C         143.7655  139.5731  160.4347 C.3     1  UNL1        0.1948
      7 F         143.8357  138.0746  160.4342 F       1  UNL1       -0.2340
      8 C         144.8509  139.4579  163.8720 C.3     1  UNL1        0.1149
      9 N         143.6153  139.5650  163.0285 N.am    1  UNL1       -0.2763
     10 C         142.3395  138.9189  163.4814 C.2     1  UNL1        0.2301
     11 O         141.1039  139.0261  162.6377 O.2     1  UNL1       -0.2745
     12 C         142.2995  138.1657  164.7779 C.3     1  UNL1        0.1116
     13 C         141.9846  138.8870  166.0549 C.ar    1  UNL1       -0.0130
     14 C         140.6430  139.5313  166.2411 C.ar    1  UNL1       -0.0025
     15 C         140.3281  140.2526  167.5181 C.ar    1  UNL1        0.0180
     16 C         141.3549  140.3295  168.6089 C.ar    1  UNL1        0.1057
     17 C         142.6966  139.6851  168.4226 C.ar    1  UNL1        0.0180
     18 C         143.0114  138.9638  167.1456 C.ar    1  UNL1       -0.0025
     19 S         141.0401  141.0507  169.8858 S.O2    1  UNL1        0.0104
     20 C         140.7252  141.7720  171.1628 C.3     1  UNL1        0.1816
     21 O         139.7429  141.5230  169.2992 O.2     1  UNL1       -0.1686
     22 O         142.3373  140.5784  170.4724 O.2     1  UNL1       -0.1686
     23 C         143.7754  142.5778  157.8421 C.3     1  UNL1        0.1256
     24 C         144.9255  142.3859  156.8985 C.ar    1  UNL1        0.1044
     25 N         146.3765  142.3364  157.2755 N.ar    1  UNL1       -0.2412
     26 C         147.1743  142.1297  156.0222 C.ar    1  UNL1        0.0898
     27 C         148.6492  142.0027  155.7808 C.ar    1  UNL1        0.0492
     28 C         149.1663  141.7974  154.3878 C.ar    1  UNL1        0.1417
     29 F         150.6413  141.6703  154.1463 F       1  UNL1       -0.2041
     30 C         148.2083  141.7191  153.2362 C.ar    1  UNL1        0.0302
     31 C         146.7334  141.8461  153.4775 C.ar    1  UNL1        0.0103
     32 C         146.2164  142.0515  154.8705 C.ar    1  UNL1        0.0484
     33 S         144.8265  142.2098  155.4122 S.2     1  UNL1       -0.0694
@<TRIPOS>BOND
     1     8     9    1
     2     9    10   am
     3    10    11    2
     4    10    12    1
     5    12    13    1
     6    13    14   ar
     7    14    15   ar
     8    15    16   ar
     9    16    19    1
    10    19    20    1
    11    19    21    2
    12    19    22    2
    13    16    17   ar
    14    17    18   ar
    15     1     9    1
    16     1     2    1
    17     2     3    1
    18     3     4    1
    19     4    23    1
    20    23    24    1
    21    24    25   ar
    22    25    26   ar
    23    26    27   ar
    24    27    28   ar
    25    28    29    1
    26    28    30   ar
    27    30    31   ar
    28    31    32   ar
    29    32    33   ar
    30     4     5    1
    31     5     6    1
    32     6     7    1
    33    18    13   ar
    34     6     1    1
    35    33    24   ar
    36    32    26   ar
