@<TRIPOS>MOLECULE
*****
 39 42 0 0 0
SMALL
GASTEIGER

@<TRIPOS>ATOM
      1 N         142.0804  143.9435  159.8075 N.3     1  UNL1       -0.1520
      2 C         141.8283  144.4019  161.2134 C.3     1  UNL1        0.1173
      3 C         142.7345  143.9548  162.3219 C.3     1  UNL1        0.1126
      4 N         143.8929  143.0493  162.0246 N.am    1  UNL1       -0.2766
      5 C         144.7991  142.6022  163.1332 C.2     1  UNL1        0.2256
      6 O         145.9574  141.6967  162.8359 O.2     1  UNL1       -0.2749
      7 C         144.1450  142.5909  160.6189 C.3     1  UNL1        0.1126
      8 C         143.2388  143.0380  159.5103 C.3     1  UNL1        0.1173
      9 S         141.1742  144.3906  158.6990 S.O2    1  UNL1        0.0634
     10 O         140.1673  143.3555  159.1047 O.2     1  UNL1       -0.1528
     11 O         142.1811  145.4258  158.2934 O.2     1  UNL1       -0.1528
     12 C         138.6326  144.2691  155.6535 C.ar    1  UNL1        0.0030
     13 C         138.4557  145.7320  155.3734 C.ar    1  UNL1        0.0019
     14 C         139.1849  146.7478  156.2018 C.ar    1  UNL1        0.0725
     15 C         140.0910  146.3007  157.3104 C.ar    1  UNL1        0.0237
     16 C         140.2680  144.8378  157.5904 C.ar    1  UNL1        0.1219
     17 C         139.5388  143.8220  156.7620 C.ar    1  UNL1        0.0179
     18 C         138.7417  142.1630  155.4239 C.3     1  UNL1        0.0339
     19 C         137.9034  143.2532  154.8250 C.3     1  UNL1        0.1072
     20 C         137.0651  144.3435  154.2261 C.3     1  UNL1        0.0339
     21 O         137.1742  142.2374  153.9965 O.3     1  UNL1       -0.3827
     22 H         137.6666  141.4017  154.0024 H       1  UNL1        0.2107
     23 C         139.0079  148.2108  155.9217 C.3     1  UNL1        0.4186
     24 F         138.8308  149.6737  155.6417 F       1  UNL1       -0.1659
     25 F         138.5204  148.4204  157.3247 F       1  UNL1       -0.1659
     26 F         139.4953  148.0012  154.5187 F       1  UNL1       -0.1659
     27 C         144.5470  143.0605  164.5390 C.3     1  UNL1        0.0811
     28 C         144.8962  143.9444  165.6996 C.3     1  UNL1        0.0142
     29 C         143.7610  142.9706  165.8134 C.3     1  UNL1        0.0314
     30 C         142.6518  142.3564  166.6150 C.ar    1  UNL1       -0.0220
     31 C         141.3120  142.1200  165.9832 C.ar    1  UNL1       -0.0043
     32 C         140.2028  141.5058  166.7848 C.ar    1  UNL1        0.0035
     33 C         140.4334  141.1281  168.2181 C.ar    1  UNL1        0.0714
     34 C         141.7732  141.3646  168.8497 C.ar    1  UNL1        0.0035
     35 C         142.8824  141.9787  168.0482 C.ar    1  UNL1       -0.0043
     36 C         139.3242  140.5139  169.0196 C.3     1  UNL1        0.4186
     37 F         138.2150  139.8998  169.8211 F       1  UNL1       -0.1659
     38 F         139.0931  139.5093  167.9300 F       1  UNL1       -0.1659
     39 F         139.5553  141.5186  170.1092 F       1  UNL1       -0.1659
@<TRIPOS>BOND
     1    18    19    1
     2    19    20    1
     3    19    21    1
     4    19    12    1
     5    12    13   ar
     6    13    14   ar
     7    14    23    1
     8    23    24    1
     9    23    25    1
    10    23    26    1
    11    14    15   ar
    12    15    16   ar
    13    16     9    1
    14     9    10    2
    15     9    11    2
    16     9     1    1
    17     1     2    1
    18     2     3    1
    19     3     4    1
    20     4     5   am
    21     5     6    2
    22    27     5    1
    23    27    28    1
    24    28    29    1
    25    29    30    1
    26    30    31   ar
    27    31    32   ar
    28    32    33   ar
    29    33    36    1
    30    36    37    1
    31    36    38    1
    32    36    39    1
    33    33    34   ar
    34    34    35   ar
    35     4     7    1
    36     7     8    1
    37    16    17   ar
    38    17    12   ar
    39     8     1    1
    40    29    27    1
    41    35    30   ar
    42    21    22    1
@<TRIPOS>MOLECULE
*****
 39 42 0 0 0
SMALL
GASTEIGER

@<TRIPOS>ATOM
      1 N         138.5434  140.1318  159.6075 N.3     1  UNL1       -0.1520
      2 C         137.9045  140.3123  160.9527 C.3     1  UNL1        0.1173
      3 C         138.3975  139.5230  162.1291 C.3     1  UNL1        0.1126
      4 N         139.5292  138.5531  161.9604 N.am    1  UNL1       -0.2766
      5 C         140.0221  137.7637  163.1368 C.2     1  UNL1        0.2256
      6 O         141.1539  136.7939  162.9681 O.2     1  UNL1       -0.2749
      7 C         140.1680  138.3725  160.6153 C.3     1  UNL1        0.1126
      8 C         139.6751  139.1619  159.4388 C.3     1  UNL1        0.1173
      9 S         138.0504  140.9211  158.4312 S.O2    1  UNL1        0.0634
     10 O         139.3393  141.6880  158.4057 O.2     1  UNL1       -0.1528
     11 O         136.7616  140.1543  158.4567 O.2     1  UNL1       -0.1528
     12 C         135.9047  141.9970  155.2707 C.ar    1  UNL1        0.0030
     13 C         136.5714  143.2891  154.9019 C.ar    1  UNL1        0.0019
     14 C         137.7311  143.7919  155.7096 C.ar    1  UNL1        0.0725
     15 C         138.2241  143.0026  156.8860 C.ar    1  UNL1        0.0237
     16 C         137.5574  141.7105  157.2547 C.ar    1  UNL1        0.1219
     17 C         136.3978  141.2077  156.4471 C.ar    1  UNL1        0.0179
     18 C         134.1542  140.8767  155.6958 C.3     1  UNL1        0.0339
     19 C         134.7451  141.4942  154.4630 C.3     1  UNL1        0.1072
     20 C         135.3359  142.1117  153.2303 C.3     1  UNL1        0.0339
     21 O         133.5854  140.9914  153.6554 O.3     1  UNL1       -0.3827
     22 H         133.1015  140.3232  154.1656 H       1  UNL1        0.2107
     23 C         138.3978  145.0840  155.3408 C.3     1  UNL1        0.4186
     24 F         139.0645  146.3761  154.9721 F       1  UNL1       -0.1659
     25 F         139.6291  144.6614  156.0859 F       1  UNL1       -0.1659
     26 F         137.1666  145.5067  154.5957 F       1  UNL1       -0.1659
     27 C         139.3833  137.9443  164.4819 C.3     1  UNL1        0.0811
     28 C         138.3890  137.5081  165.5169 C.3     1  UNL1        0.0142
     29 C         139.2711  138.6931  165.7767 C.3     1  UNL1        0.0314
     30 C         139.7157  139.8097  166.6743 C.ar    1  UNL1       -0.0220
     31 C         140.5576  140.9232  166.1255 C.ar    1  UNL1       -0.0043
     32 C         141.0022  142.0398  167.0231 C.ar    1  UNL1        0.0035
     33 C         140.6047  142.0428  168.4696 C.ar    1  UNL1        0.0714
     34 C         139.7628  140.9293  169.0183 C.ar    1  UNL1        0.0035
     35 C         139.3182  139.8127  168.1207 C.ar    1  UNL1       -0.0043
     36 C         141.0492  143.1593  169.3672 C.3     1  UNL1        0.4186
     37 F         141.4938  144.2759  170.2648 F       1  UNL1       -0.1659
     38 F         142.1465  142.2897  169.9055 F       1  UNL1       -0.1659
     39 F         139.9519  144.0289  168.8289 F       1  UNL1       -0.1659
@<TRIPOS>BOND
     1    18    19    1
     2    19    20    1
     3    19    21    1
     4    19    12    1
     5    12    13   ar
     6    13    14   ar
     7    14    23    1
     8    23    24    1
     9    23    25    1
    10    23    26    1
    11    14    15   ar
    12    15    16   ar
    13    16     9    1
    14     9    10    2
    15     9    11    2
    16     9     1    1
    17     1     2    1
    18     2     3    1
    19     3     4    1
    20     4     5   am
    21     5     6    2
    22    27     5    1
    23    27    28    1
    24    28    29    1
    25    29    30    1
    26    30    31   ar
    27    31    32   ar
    28    32    33   ar
    29    33    36    1
    30    36    37    1
    31    36    38    1
    32    36    39    1
    33    33    34   ar
    34    34    35   ar
    35     4     7    1
    36     7     8    1
    37    16    17   ar
    38    17    12   ar
    39     8     1    1
    40    29    27    1
    41    35    30   ar
    42    21    22    1
@<TRIPOS>MOLECULE
*****
 39 42 0 0 0
SMALL
GASTEIGER

@<TRIPOS>ATOM
      1 N         141.9789  143.9052  159.6766 N.3     1  UNL1       -0.1520
      2 C         141.7258  144.3566  161.0846 C.3     1  UNL1        0.1173
      3 C         142.6393  143.9152  162.1894 C.3     1  UNL1        0.1126
      4 N         143.8060  143.0225  161.8863 N.am    1  UNL1       -0.2766
      5 C         144.7195  142.5811  162.9911 C.2     1  UNL1        0.2256
      6 O         145.8863  141.6884  162.6881 O.2     1  UNL1       -0.2749
      7 C         144.0592  142.5711  160.4785 C.3     1  UNL1        0.1126
      8 C         143.1456  143.0125  159.3736 C.3     1  UNL1        0.1173
      9 S         141.0654  144.3466  158.5718 S.O2    1  UNL1        0.0634
     10 O         142.0738  145.3730  158.1481 O.2     1  UNL1       -0.1528
     11 O         140.0571  143.3201  158.9955 O.2     1  UNL1       -0.1528
     12 C         139.4691  146.5442  155.6784 C.ar    1  UNL1        0.0030
     13 C         138.3247  145.6706  155.2574 C.ar    1  UNL1        0.0019
     14 C         138.0939  144.3556  155.9412 C.ar    1  UNL1        0.0725
     15 C         139.0075  143.9143  157.0460 C.ar    1  UNL1        0.0237
     16 C         140.1518  144.7879  157.4670 C.ar    1  UNL1        0.1219
     17 C         140.3826  146.1029  156.7832 C.ar    1  UNL1        0.0179
     18 C         138.8177  148.5372  156.0007 C.3     1  UNL1        0.0339
     19 C         139.6998  147.8592  154.9946 C.3     1  UNL1        0.1072
     20 C         140.5820  147.1812  153.9885 C.3     1  UNL1        0.0339
     21 O         139.9306  149.1742  154.3108 O.3     1  UNL1       -0.3827
     22 H         139.2767  149.8196  154.6219 H       1  UNL1        0.2107
     23 C         136.9495  143.4820  155.5202 C.3     1  UNL1        0.4186
     24 F         135.8052  142.6084  155.0992 F       1  UNL1       -0.1659
     25 F         137.1805  142.6041  156.7142 F       1  UNL1       -0.1659
     26 F         136.7186  144.3600  154.3261 F       1  UNL1       -0.1659
     27 C         144.4664  143.0325  164.3991 C.3     1  UNL1        0.0811
     28 C         144.8092  143.9167  165.5613 C.3     1  UNL1        0.0142
     29 C         143.6851  142.9301  165.6754 C.3     1  UNL1        0.0314
     30 C         142.5850  142.3014  166.4782 C.ar    1  UNL1       -0.0220
     31 C         142.6921  142.2332  167.9729 C.ar    1  UNL1       -0.0043
     32 C         141.5920  141.6044  168.7757 C.ar    1  UNL1        0.0035
     33 C         140.3848  141.0439  168.0838 C.ar    1  UNL1        0.0714
     34 C         140.2778  141.1121  166.5892 C.ar    1  UNL1        0.0035
     35 C         141.3779  141.7409  165.7864 C.ar    1  UNL1       -0.0043
     36 C         139.2847  140.4152  168.8866 C.3     1  UNL1        0.4186
     37 F         138.1846  139.7864  169.6894 F       1  UNL1       -0.1659
     38 F         139.5146  141.4128  169.9829 F       1  UNL1       -0.1659
     39 F         139.0549  139.4175  167.7903 F       1  UNL1       -0.1659
@<TRIPOS>BOND
     1    18    19    1
     2    19    20    1
     3    19    21    1
     4    19    12    1
     5    12    13   ar
     6    13    14   ar
     7    14    23    1
     8    23    24    1
     9    23    25    1
    10    23    26    1
    11    14    15   ar
    12    15    16   ar
    13    16     9    1
    14     9    10    2
    15     9    11    2
    16     9     1    1
    17     1     2    1
    18     2     3    1
    19     3     4    1
    20     4     5   am
    21     5     6    2
    22    27     5    1
    23    27    28    1
    24    28    29    1
    25    29    30    1
    26    30    31   ar
    27    31    32   ar
    28    32    33   ar
    29    33    36    1
    30    36    37    1
    31    36    38    1
    32    36    39    1
    33    33    34   ar
    34    34    35   ar
    35     4     7    1
    36     7     8    1
    37    16    17   ar
    38    17    12   ar
    39     8     1    1
    40    29    27    1
    41    35    30   ar
    42    21    22    1
@<TRIPOS>MOLECULE
*****
 39 42 0 0 0
SMALL
GASTEIGER

@<TRIPOS>ATOM
      1 N         141.6147  139.3269  160.6370 N.3     1  UNL1       -0.1520
      2 C         142.5963  138.5580  159.8030 C.3     1  UNL1        0.1173
      3 C         142.1554  137.9299  158.5143 C.3     1  UNL1        0.1126
      4 N         140.7330  138.0706  158.0594 N.am    1  UNL1       -0.2766
      5 C         140.2921  137.4424  156.7706 C.2     1  UNL1        0.2256
      6 O         138.8696  137.5832  156.3157 O.2     1  UNL1       -0.2749
      7 C         139.7514  138.8395  158.8933 C.3     1  UNL1        0.1126
      8 C         140.1923  139.4676  160.1821 C.3     1  UNL1        0.1173
      9 S         142.0556  139.9551  161.9258 S.O2    1  UNL1        0.0634
     10 O         143.3995  139.3043  161.7832 O.2     1  UNL1       -0.1528
     11 O         140.7117  140.6058  162.0684 O.2     1  UNL1       -0.1528
     12 C         142.9866  140.3919  165.7589 C.ar    1  UNL1        0.0030
     13 C         143.3782  141.8395  165.7923 C.ar    1  UNL1        0.0019
     14 C         143.3289  142.6590  164.5368 C.ar    1  UNL1        0.0725
     15 C         142.8880  142.0309  163.2480 C.ar    1  UNL1        0.0237
     16 C         142.4965  140.5833  163.2146 C.ar    1  UNL1        0.1219
     17 C         142.5458  139.7638  164.4701 C.ar    1  UNL1        0.0179
     18 C         142.5588  140.7547  167.8047 C.3     1  UNL1        0.0339
     19 C         143.0360  139.5725  167.0143 C.3     1  UNL1        0.1072
     20 C         143.5131  138.3903  166.2239 C.3     1  UNL1        0.0339
     21 O         143.0853  138.7530  168.2697 O.3     1  UNL1       -0.3827
     22 H         143.0330  139.3393  169.0407 H       1  UNL1        0.2107
     23 C         143.7204  144.1066  164.5703 C.3     1  UNL1        0.4186
     24 F         144.1120  145.5542  164.6038 F       1  UNL1       -0.1659
     25 F         144.8726  143.7741  165.4713 F       1  UNL1       -0.1659
     26 F         142.5682  144.4391  163.6693 F       1  UNL1       -0.1659
     27 C         141.2736  136.6735  155.9366 C.3     1  UNL1        0.0811
     28 C         142.0916  136.5393  154.6865 C.3     1  UNL1        0.0142
     29 C         142.1556  135.4759  155.7424 C.3     1  UNL1        0.0314
     30 C         142.7019  134.1705  156.2399 C.ar    1  UNL1       -0.0220
     31 C         143.9071  134.1533  157.1328 C.ar    1  UNL1       -0.0043
     32 C         144.4533  132.8479  157.6304 C.ar    1  UNL1        0.0035
     33 C         143.7943  131.5597  157.2349 C.ar    1  UNL1        0.0714
     34 C         142.5892  131.5769  156.3420 C.ar    1  UNL1        0.0035
     35 C         142.0430  132.8823  155.8445 C.ar    1  UNL1       -0.0043
     36 C         144.3405  130.2543  157.7324 C.3     1  UNL1        0.4186
     37 F         144.8868  128.9489  158.2299 F       1  UNL1       -0.1659
     38 F         145.4684  130.9816  158.4024 F       1  UNL1       -0.1659
     39 F         143.2126  129.5270  157.0625 F       1  UNL1       -0.1659
@<TRIPOS>BOND
     1    18    19    1
     2    19    20    1
     3    19    21    1
     4    19    12    1
     5    12    13   ar
     6    13    14   ar
     7    14    23    1
     8    23    24    1
     9    23    25    1
    10    23    26    1
    11    14    15   ar
    12    15    16   ar
    13    16     9    1
    14     9    10    2
    15     9    11    2
    16     9     1    1
    17     1     2    1
    18     2     3    1
    19     3     4    1
    20     4     5   am
    21     5     6    2
    22    27     5    1
    23    27    28    1
    24    28    29    1
    25    29    30    1
    26    30    31   ar
    27    31    32   ar
    28    32    33   ar
    29    33    36    1
    30    36    37    1
    31    36    38    1
    32    36    39    1
    33    33    34   ar
    34    34    35   ar
    35     4     7    1
    36     7     8    1
    37    16    17   ar
    38    17    12   ar
    39     8     1    1
    40    29    27    1
    41    35    30   ar
    42    21    22    1
@<TRIPOS>MOLECULE
*****
 39 42 0 0 0
SMALL
GASTEIGER

@<TRIPOS>ATOM
      1 N         139.5949  141.4251  159.1046 N.3     1  UNL1       -0.1520
      2 C         138.6569  140.4785  158.4158 C.3     1  UNL1        0.1173
      3 C         137.7488  140.9786  157.3317 C.3     1  UNL1        0.1126
      4 N         137.7786  142.4252  156.9364 N.am    1  UNL1       -0.2766
      5 C         136.8705  142.9253  155.8523 C.2     1  UNL1        0.2256
      6 O         136.9002  144.3719  155.4570 O.2     1  UNL1       -0.2749
      7 C         138.7164  143.3718  157.6251 C.3     1  UNL1        0.1126
      8 C         139.6246  142.8717  158.7092 C.3     1  UNL1        0.1173
      9 S         140.5030  140.9250  160.1886 S.O2    1  UNL1        0.0634
     10 O         141.3256  142.1742  160.0757 O.2     1  UNL1       -0.1528
     11 O         139.6803  139.6758  160.3015 O.2     1  UNL1       -0.1528
     12 C         143.6523  140.5758  162.5782 C.ar    1  UNL1        0.0030
     13 C         143.2273  139.4247  163.4408 C.ar    1  UNL1        0.0019
     14 C         141.8942  138.7737  163.2195 C.ar    1  UNL1        0.0725
     15 C         140.9861  139.2737  162.1354 C.ar    1  UNL1        0.0237
     16 C         141.4111  140.4249  161.2728 C.ar    1  UNL1        0.1219
     17 C         142.7442  141.0759  161.4941 C.ar    1  UNL1        0.0179
     18 C         145.2041  140.3677  164.0095 C.3     1  UNL1        0.0339
     19 C         144.9854  141.2269  162.7996 C.3     1  UNL1        0.1072
     20 C         144.7667  142.0861  161.5896 C.3     1  UNL1        0.0339
     21 O         146.3185  141.8779  163.0209 O.3     1  UNL1       -0.3827
     22 H         146.6345  141.6718  163.9145 H       1  UNL1        0.2107
     23 C         141.4693  137.6225  164.0822 C.3     1  UNL1        0.4186
     24 F         141.0444  136.4714  164.9449 F       1  UNL1       -0.1659
     25 F         141.8724  138.3907  165.3058 F       1  UNL1       -0.1659
     26 F         141.0661  136.8542  162.8586 F       1  UNL1       -0.1659
     27 C         135.9326  141.9787  155.1636 C.3     1  UNL1        0.0811
     28 C         135.5607  141.1642  153.9601 C.3     1  UNL1        0.0142
     29 C         134.6799  141.1537  155.1741 C.3     1  UNL1        0.0314
     30 C         133.4481  140.6713  155.8812 C.ar    1  UNL1       -0.0220
     31 C         133.5613  139.6451  156.9694 C.ar    1  UNL1       -0.0043
     32 C         132.3295  139.1627  157.6764 C.ar    1  UNL1        0.0035
     33 C         130.9844  139.7065  157.2952 C.ar    1  UNL1        0.0714
     34 C         130.8713  140.7326  156.2071 C.ar    1  UNL1        0.0035
     35 C         132.1031  141.2150  155.5000 C.ar    1  UNL1       -0.0043
     36 C         129.7526  139.2241  158.0023 C.3     1  UNL1        0.4186
     37 F         128.5208  138.7417  158.7093 F       1  UNL1       -0.1659
     38 F         130.5872  138.2724  158.8070 F       1  UNL1       -0.1659
     39 F         128.9180  140.1759  157.1976 F       1  UNL1       -0.1659
@<TRIPOS>BOND
     1    18    19    1
     2    19    20    1
     3    19    21    1
     4    19    12    1
     5    12    13   ar
     6    13    14   ar
     7    14    23    1
     8    23    24    1
     9    23    25    1
    10    23    26    1
    11    14    15   ar
    12    15    16   ar
    13    16     9    1
    14     9    10    2
    15     9    11    2
    16     9     1    1
    17     1     2    1
    18     2     3    1
    19     3     4    1
    20     4     5   am
    21     5     6    2
    22    27     5    1
    23    27    28    1
    24    28    29    1
    25    29    30    1
    26    30    31   ar
    27    31    32   ar
    28    32    33   ar
    29    33    36    1
    30    36    37    1
    31    36    38    1
    32    36    39    1
    33    33    34   ar
    34    34    35   ar
    35     4     7    1
    36     7     8    1
    37    16    17   ar
    38    17    12   ar
    39     8     1    1
    40    29    27    1
    41    35    30   ar
    42    21    22    1
@<TRIPOS>MOLECULE
*****
 39 42 0 0 0
SMALL
GASTEIGER

@<TRIPOS>ATOM
      1 N         142.0785  139.5556  161.6774 N.3     1  UNL1       -0.1520
      2 C         141.3478  138.5594  160.8267 C.3     1  UNL1        0.1173
      3 C         141.7435  138.3642  159.3931 C.3     1  UNL1        0.1126
      4 N         142.8699  139.1651  158.8102 N.am    1  UNL1       -0.2766
      5 C         143.2656  138.9699  157.3766 C.2     1  UNL1        0.2256
      6 O         144.3920  139.7708  156.7937 O.2     1  UNL1       -0.2749
      7 C         143.6006  140.1613  159.6609 C.3     1  UNL1        0.1126
      8 C         143.2049  140.3565  161.0946 C.3     1  UNL1        0.1173
      9 S         141.6828  139.7509  163.1110 S.O2    1  UNL1        0.0634
     10 O         141.0175  138.4065  163.1105 O.2     1  UNL1       -0.1528
     11 O         142.3481  141.0952  163.1116 O.2     1  UNL1       -0.1528
     12 C         141.7669  140.9430  166.8955 C.ar    1  UNL1        0.0030
     13 C         140.4958  140.3368  167.4119 C.ar    1  UNL1        0.0019
     14 C         139.6203  139.5352  166.4948 C.ar    1  UNL1        0.0725
     15 C         140.0160  139.3399  165.0612 C.ar    1  UNL1        0.0237
     16 C         141.2871  139.9461  164.5447 C.ar    1  UNL1        0.1219
     17 C         142.1625  140.7477  165.4619 C.ar    1  UNL1        0.0179
     18 C         143.3303  142.3511  166.6258 C.3     1  UNL1        0.0339
     19 C         142.6423  141.7445  167.8126 C.3     1  UNL1        0.1072
     20 C         141.9543  141.1379  168.9995 C.3     1  UNL1        0.0339
     21 O         143.5178  142.5460  168.7298 O.3     1  UNL1       -0.3827
     22 H         144.2670  142.9054  168.2294 H       1  UNL1        0.2107
     23 C         138.3492  138.9290  167.0113 C.3     1  UNL1        0.4186
     24 F         137.0781  138.3228  167.5279 F       1  UNL1       -0.1659
     25 F         138.5563  139.6168  168.3281 F       1  UNL1       -0.1659
     26 F         138.1420  138.2412  165.6945 F       1  UNL1       -0.1659
     27 C         142.5349  137.9737  156.5258 C.3     1  UNL1        0.0811
     28 C         141.5535  137.6712  155.4325 C.3     1  UNL1        0.0142
     29 C         142.2508  136.5508  156.1455 C.3     1  UNL1        0.0314
     30 C         142.4893  135.0824  156.3377 C.ar    1  UNL1       -0.0220
     31 C         141.6747  134.0835  155.5704 C.ar    1  UNL1       -0.0043
     32 C         141.9132  132.6151  155.7626 C.ar    1  UNL1        0.0035
     33 C         142.9664  132.1456  156.7220 C.ar    1  UNL1        0.0714
     34 C         143.7810  133.1445  157.4892 C.ar    1  UNL1        0.0035
     35 C         143.5424  134.6129  157.2971 C.ar    1  UNL1       -0.0043
     36 C         143.2050  130.6773  156.9142 C.3     1  UNL1        0.4186
     37 F         143.4435  129.2089  157.1063 F       1  UNL1       -0.1659
     38 F         142.0842  130.3710  155.9655 F       1  UNL1       -0.1659
     39 F         144.3257  130.9835  157.8629 F       1  UNL1       -0.1659
@<TRIPOS>BOND
     1    18    19    1
     2    19    20    1
     3    19    21    1
     4    19    12    1
     5    12    13   ar
     6    13    14   ar
     7    14    23    1
     8    23    24    1
     9    23    25    1
    10    23    26    1
    11    14    15   ar
    12    15    16   ar
    13    16     9    1
    14     9    10    2
    15     9    11    2
    16     9     1    1
    17     1     2    1
    18     2     3    1
    19     3     4    1
    20     4     5   am
    21     5     6    2
    22    27     5    1
    23    27    28    1
    24    28    29    1
    25    29    30    1
    26    30    31   ar
    27    31    32   ar
    28    32    33   ar
    29    33    36    1
    30    36    37    1
    31    36    38    1
    32    36    39    1
    33    33    34   ar
    34    34    35   ar
    35     4     7    1
    36     7     8    1
    37    16    17   ar
    38    17    12   ar
    39     8     1    1
    40    29    27    1
    41    35    30   ar
    42    21    22    1
@<TRIPOS>MOLECULE
*****
 39 42 0 0 0
SMALL
GASTEIGER

@<TRIPOS>ATOM
      1 N         143.3719  139.2024  159.0329 N.3     1  UNL1       -0.1520
      2 C         142.8392  137.8247  158.7714 C.3     1  UNL1        0.1173
      3 C         142.6850  137.3352  157.3620 C.3     1  UNL1        0.1126
      4 N         143.0634  138.2234  156.2139 N.am    1  UNL1       -0.2766
      5 C         142.9092  137.7339  154.8045 C.2     1  UNL1        0.2256
      6 O         143.2877  138.6220  153.6565 O.2     1  UNL1       -0.2749
      7 C         143.5961  139.6010  156.4753 C.3     1  UNL1        0.1126
      8 C         143.7503  140.0906  157.8848 C.3     1  UNL1        0.1173
      9 S         143.5261  139.6919  160.4423 S.O2    1  UNL1        0.0634
     10 O         142.9039  141.0009  160.0558 O.2     1  UNL1       -0.1528
     11 O         144.1482  138.3830  160.8289 O.2     1  UNL1       -0.1528
     12 C         143.8734  142.1436  163.5438 C.ar    1  UNL1        0.0030
     13 C         143.9887  141.1604  164.6707 C.ar    1  UNL1        0.0019
     14 C         143.9499  139.6878  164.3882 C.ar    1  UNL1        0.0725
     15 C         143.7956  139.1983  162.9788 C.ar    1  UNL1        0.0237
     16 C         143.6803  140.1814  161.8519 C.ar    1  UNL1        0.1219
     17 C         143.7191  141.6541  162.1343 C.ar    1  UNL1        0.0179
     18 C         144.4913  143.3408  165.1823 C.3     1  UNL1        0.0339
     19 C         143.9122  143.6162  163.8263 C.3     1  UNL1        0.1072
     20 C         143.3331  143.8916  162.4702 C.3     1  UNL1        0.0339
     21 O         143.9511  145.0889  164.1088 O.3     1  UNL1       -0.3827
     22 H         144.0883  145.2324  165.0582 H       1  UNL1        0.2107
     23 C         144.0652  138.7046  165.5153 C.3     1  UNL1        0.4186
     24 F         144.1805  137.7215  166.6423 F       1  UNL1       -0.1659
     25 F         142.5745  138.7197  165.6810 F       1  UNL1       -0.1659
     26 F         145.5559  138.6895  165.3496 F       1  UNL1       -0.1659
     27 C         142.3766  136.3562  154.5430 C.3     1  UNL1        0.0811
     28 C         141.4725  135.4367  153.7767 C.3     1  UNL1        0.0142
     29 C         142.3580  134.8895  154.8566 C.3     1  UNL1        0.0314
     30 C         142.8586  133.7267  155.6612 C.ar    1  UNL1       -0.0220
     31 C         143.9748  133.9200  156.6445 C.ar    1  UNL1       -0.0043
     32 C         144.4754  132.7572  157.4490 C.ar    1  UNL1        0.0035
     33 C         143.8597  131.4010  157.2703 C.ar    1  UNL1        0.0714
     34 C         142.7436  131.2077  156.2871 C.ar    1  UNL1        0.0035
     35 C         142.2430  132.3705  155.4825 C.ar    1  UNL1       -0.0043
     36 C         144.3603  130.2382  158.0749 C.3     1  UNL1        0.4186
     37 F         144.8608  129.0754  158.8794 F       1  UNL1       -0.1659
     38 F         145.5850  131.0213  158.4446 F       1  UNL1       -0.1659
     39 F         143.1355  129.4552  157.7051 F       1  UNL1       -0.1659
@<TRIPOS>BOND
     1    18    19    1
     2    19    20    1
     3    19    21    1
     4    19    12    1
     5    12    13   ar
     6    13    14   ar
     7    14    23    1
     8    23    24    1
     9    23    25    1
    10    23    26    1
    11    14    15   ar
    12    15    16   ar
    13    16     9    1
    14     9    10    2
    15     9    11    2
    16     9     1    1
    17     1     2    1
    18     2     3    1
    19     3     4    1
    20     4     5   am
    21     5     6    2
    22    27     5    1
    23    27    28    1
    24    28    29    1
    25    29    30    1
    26    30    31   ar
    27    31    32   ar
    28    32    33   ar
    29    33    36    1
    30    36    37    1
    31    36    38    1
    32    36    39    1
    33    33    34   ar
    34    34    35   ar
    35     4     7    1
    36     7     8    1
    37    16    17   ar
    38    17    12   ar
    39     8     1    1
    40    29    27    1
    41    35    30   ar
    42    21    22    1
@<TRIPOS>MOLECULE
*****
 39 42 0 0 0
SMALL
GASTEIGER

@<TRIPOS>ATOM
      1 N         138.5951  140.3927  160.1615 N.3     1  UNL1       -0.1520
      2 C         138.0465  140.8242  161.4893 C.3     1  UNL1        0.1173
      3 C         138.4337  140.0863  162.7364 C.3     1  UNL1        0.1126
      4 N         139.3695  138.9167  162.6559 N.am    1  UNL1       -0.2766
      5 C         139.7567  138.1787  163.9030 C.2     1  UNL1        0.2256
      6 O         140.6925  137.0092  163.8225 O.2     1  UNL1       -0.2749
      7 C         139.9181  138.4852  161.3282 C.3     1  UNL1        0.1126
      8 C         139.5309  139.2232  160.0810 C.3     1  UNL1        0.1173
      9 S         138.2079  141.1307  158.9144 S.O2    1  UNL1        0.0634
     10 O         138.7317  142.4056  159.5062 O.2     1  UNL1       -0.1528
     11 O         137.6841  139.8558  158.3226 O.2     1  UNL1       -0.1528
     12 C         138.1694  143.8533  156.0271 C.ar    1  UNL1        0.0030
     13 C         137.0463  143.3446  155.1728 C.ar    1  UNL1        0.0019
     14 C         136.3104  142.0979  155.5657 C.ar    1  UNL1        0.0725
     15 C         136.6976  141.3600  156.8128 C.ar    1  UNL1        0.0237
     16 C         137.8207  141.8686  157.6671 C.ar    1  UNL1        0.1219
     17 C         138.5565  143.1153  157.2743 C.ar    1  UNL1        0.0179
     18 C         137.7321  145.5311  154.8050 C.3     1  UNL1        0.0339
     19 C         138.9052  145.0999  155.6343 C.3     1  UNL1        0.1072
     20 C         140.0784  144.6687  156.4636 C.3     1  UNL1        0.0339
     21 O         139.6411  146.3466  155.2415 O.3     1  UNL1       -0.3827
     22 H         139.1963  146.7599  154.4850 H       1  UNL1        0.2107
     23 C         135.1873  141.5892  154.7113 C.3     1  UNL1        0.4186
     24 F         134.0642  141.0806  153.8570 F       1  UNL1       -0.1659
     25 F         134.5811  140.9180  155.9079 F       1  UNL1       -0.1659
     26 F         135.7935  142.2605  153.5147 F       1  UNL1       -0.1659
     27 C         139.2081  138.6103  165.2308 C.3     1  UNL1        0.0811
     28 C         138.1055  138.5955  166.2477 C.3     1  UNL1        0.0142
     29 C         139.3606  139.3726  166.5136 C.3     1  UNL1        0.0314
     30 C         140.1733  140.2613  167.4078 C.ar    1  UNL1       -0.0220
     31 C         139.7292  140.5143  168.8181 C.ar    1  UNL1       -0.0043
     32 C         140.5419  141.4030  169.7124 C.ar    1  UNL1        0.0035
     33 C         141.7987  142.0388  169.1963 C.ar    1  UNL1        0.0714
     34 C         142.2427  141.7859  167.7860 C.ar    1  UNL1        0.0035
     35 C         141.4300  140.8971  166.8918 C.ar    1  UNL1       -0.0043
     36 C         142.6114  142.9276  170.0905 C.3     1  UNL1        0.4186
     37 F         143.4241  143.8164  170.9847 F       1  UNL1       -0.1659
     38 F         143.7241  141.9218  170.0789 F       1  UNL1       -0.1659
     39 F         141.4987  143.9335  170.1020 F       1  UNL1       -0.1659
@<TRIPOS>BOND
     1    18    19    1
     2    19    20    1
     3    19    21    1
     4    19    12    1
     5    12    13   ar
     6    13    14   ar
     7    14    23    1
     8    23    24    1
     9    23    25    1
    10    23    26    1
    11    14    15   ar
    12    15    16   ar
    13    16     9    1
    14     9    10    2
    15     9    11    2
    16     9     1    1
    17     1     2    1
    18     2     3    1
    19     3     4    1
    20     4     5   am
    21     5     6    2
    22    27     5    1
    23    27    28    1
    24    28    29    1
    25    29    30    1
    26    30    31   ar
    27    31    32   ar
    28    32    33   ar
    29    33    36    1
    30    36    37    1
    31    36    38    1
    32    36    39    1
    33    33    34   ar
    34    34    35   ar
    35     4     7    1
    36     7     8    1
    37    16    17   ar
    38    17    12   ar
    39     8     1    1
    40    29    27    1
    41    35    30   ar
    42    21    22    1
@<TRIPOS>MOLECULE
*****
 39 42 0 0 0
SMALL
GASTEIGER

@<TRIPOS>ATOM
      1 N         142.0578  140.0807  159.4114 N.3     1  UNL1       -0.1520
      2 C         141.0652  140.1864  160.5311 C.3     1  UNL1        0.1173
      3 C         141.1323  141.3410  161.4863 C.3     1  UNL1        0.1126
      4 N         142.1920  142.3899  161.3218 N.am    1  UNL1       -0.2766
      5 C         142.2591  143.5444  162.2770 C.2     1  UNL1        0.2256
      6 O         143.3187  144.5933  162.1125 O.2     1  UNL1       -0.2749
      7 C         143.1845  142.2841  160.2022 C.3     1  UNL1        0.1126
      8 C         143.1175  141.1295  159.2469 C.3     1  UNL1        0.1173
      9 S         141.9907  138.9261  158.4562 S.O2    1  UNL1        0.0634
     10 O         143.4546  138.6714  158.6612 O.2     1  UNL1       -0.1528
     11 O         140.5268  139.1808  158.2512 O.2     1  UNL1       -0.1528
     12 C         140.8705  136.6351  155.4154 C.ar    1  UNL1        0.0030
     13 C         141.7892  135.4624  155.5906 C.ar    1  UNL1        0.0019
     14 C         142.7750  135.4442  156.7210 C.ar    1  UNL1        0.0725
     15 C         142.8422  136.5987  157.6762 C.ar    1  UNL1        0.0237
     16 C         141.9235  137.7714  157.5010 C.ar    1  UNL1        0.1219
     17 C         140.9377  137.7896  156.3706 C.ar    1  UNL1        0.0179
     18 C         138.8561  137.2612  155.1918 C.3     1  UNL1        0.0339
     19 C         139.8847  136.6533  154.2850 C.3     1  UNL1        0.1072
     20 C         140.9133  136.0453  153.3781 C.3     1  UNL1        0.0339
     21 O         138.8988  136.6715  153.1546 O.3     1  UNL1       -0.3827
     22 H         138.0073  136.8231  153.5055 H       1  UNL1        0.2107
     23 C         143.6937  134.2714  156.8961 C.3     1  UNL1        0.4186
     24 F         144.6123  133.0986  157.0712 F       1  UNL1       -0.1659
     25 F         143.8358  134.1603  155.4071 F       1  UNL1       -0.1659
     26 F         143.5516  134.3824  158.3852 F       1  UNL1       -0.1659
     27 C         141.2665  143.6502  163.3967 C.3     1  UNL1        0.0811
     28 C         140.4745  144.4887  164.3557 C.3     1  UNL1        0.0142
     29 C         140.3394  142.9950  164.3770 C.3     1  UNL1        0.0314
     30 C         139.7260  141.7542  164.9552 C.ar    1  UNL1       -0.0220
     31 C         138.6715  141.0117  164.1891 C.ar    1  UNL1       -0.0043
     32 C         138.0582  139.7710  164.7674 C.ar    1  UNL1        0.0035
     33 C         138.4994  139.2727  166.1117 C.ar    1  UNL1        0.0714
     34 C         139.5539  140.0151  166.8777 C.ar    1  UNL1        0.0035
     35 C         140.1672  141.2559  166.2994 C.ar    1  UNL1       -0.0043
     36 C         137.8861  138.0319  166.6899 C.3     1  UNL1        0.4186
     37 F         137.2728  136.7912  167.2682 F       1  UNL1       -0.1659
     38 F         138.4141  137.2329  165.5355 F       1  UNL1       -0.1659
     39 F         137.3580  138.8310  167.8444 F       1  UNL1       -0.1659
@<TRIPOS>BOND
     1    18    19    1
     2    19    20    1
     3    19    21    1
     4    19    12    1
     5    12    13   ar
     6    13    14   ar
     7    14    23    1
     8    23    24    1
     9    23    25    1
    10    23    26    1
    11    14    15   ar
    12    15    16   ar
    13    16     9    1
    14     9    10    2
    15     9    11    2
    16     9     1    1
    17     1     2    1
    18     2     3    1
    19     3     4    1
    20     4     5   am
    21     5     6    2
    22    27     5    1
    23    27    28    1
    24    28    29    1
    25    29    30    1
    26    30    31   ar
    27    31    32   ar
    28    32    33   ar
    29    33    36    1
    30    36    37    1
    31    36    38    1
    32    36    39    1
    33    33    34   ar
    34    34    35   ar
    35     4     7    1
    36     7     8    1
    37    16    17   ar
    38    17    12   ar
    39     8     1    1
    40    29    27    1
    41    35    30   ar
    42    21    22    1
