@<TRIPOS>MOLECULE
*****
 24 27 0 0 0
SMALL
GASTEIGER

@<TRIPOS>ATOM
      1 C         142.9063  138.8484  167.4113 C.ar    1  UNL1        0.1249
      2 N         143.0523  139.0143  168.8949 N.ar    1  UNL1       -0.2426
      3 C         141.9686  139.6865  169.6847 C.ar    1  UNL1        0.0987
      4 C         140.7389  140.1927  168.9908 C.ar    1  UNL1        0.0208
      5 C         140.5929  140.0268  167.5072 C.ar    1  UNL1        0.0062
      6 C         139.3632  140.5331  166.8132 C.ar    1  UNL1        0.0402
      7 C         139.2172  140.3672  165.3296 C.ar    1  UNL1        0.1357
      8 C         140.3009  139.6950  164.5399 C.ar    1  UNL1        0.0402
      9 C         141.5306  139.1888  165.2338 C.ar    1  UNL1        0.0049
     10 C         141.6766  139.3547  166.7175 C.ar    1  UNL1        0.0192
     11 F         144.5142  138.8171  165.3708 F       1  UNL1       -0.1915
     12 C         143.9901  138.1762  166.6216 C.3     1  UNL1        0.3581
     13 F         144.5497  136.8631  167.0826 F       1  UNL1       -0.1915
     14 N         137.9875  140.8735  164.6357 N.pl3   1  UNL1       -0.1958
     15 H         137.0977  140.5667  164.9246 H       1  UNL1        0.2986
     16 C         138.1134  141.8472  163.5017 C.2     1  UNL1        0.3707
     17 N         137.3182  141.8271  162.2299 N.2     1  UNL1        0.0819
     18 N         137.7700  142.9794  161.3825 N.2     1  UNL1       -0.0365
     19 C         138.8444  143.7116  162.1306 C.2     1  UNL1        0.1346
     20 C         139.6570  144.9252  161.7884 C.3     1  UNL1        0.0792
     21 C         140.6817  145.4390  162.7557 C.2     1  UNL1        0.0010
     22 C         140.8939  144.7392  164.0655 C.2     1  UNL1        0.0950
     23 N         140.0814  143.5256  164.4077 N.2     1  UNL1       -0.2354
     24 C         139.0566  143.0119  163.4403 C.2     1  UNL1        0.1834
@<TRIPOS>BOND
     1    11    12    1
     2    12    13    1
     3    12     1    1
     4     1     2   ar
     5     2     3   ar
     6     3     4   ar
     7     4     5   ar
     8     5     6   ar
     9     6     7   ar
    10     7    14    1
    11    14    16    1
    12    16    17    2
    13    17    18    1
    14    18    19    2
    15    19    20    1
    16    20    21    1
    17    21    22    2
    18    22    23    1
    19    23    24    2
    20     7     8   ar
    21     8     9   ar
    22     9    10   ar
    23    10     1   ar
    24    10     5   ar
    25    24    16    1
    26    24    19    1
    27    14    15    1
@<TRIPOS>MOLECULE
*****
 24 27 0 0 0
SMALL
GASTEIGER

@<TRIPOS>ATOM
      1 C         140.5403  142.4411  169.5646 C.ar    1  UNL1        0.1249
      2 N         139.4888  141.7290  170.3628 N.ar    1  UNL1       -0.2426
      3 C         138.8965  140.4496  169.8505 C.ar    1  UNL1        0.0987
      4 C         139.3557  139.8823  168.5401 C.ar    1  UNL1        0.0208
      5 C         140.4073  140.5945  167.7419 C.ar    1  UNL1        0.0062
      6 C         140.8666  140.0272  166.4314 C.ar    1  UNL1        0.0402
      7 C         141.9181  140.7393  165.6332 C.ar    1  UNL1        0.1357
      8 C         142.5104  142.0187  166.1455 C.ar    1  UNL1        0.0402
      9 C         142.0511  142.5860  167.4559 C.ar    1  UNL1        0.0049
     10 C         140.9995  141.8738  168.2542 C.ar    1  UNL1        0.0192
     11 F         142.5618  143.7565  170.5306 F       1  UNL1       -0.1915
     12 C         141.1326  143.7205  170.0769 C.3     1  UNL1        0.3581
     13 F         140.2956  144.9638  170.1354 F       1  UNL1       -0.1915
     14 N         142.3774  140.1721  164.3227 N.pl3   1  UNL1       -0.1958
     15 H         143.2318  140.4658  163.9316 H       1  UNL1        0.2986
     16 C         141.5350  139.1573  163.6083 C.2     1  UNL1        0.3707
     17 N         141.8401  137.6948  163.4746 N.2     1  UNL1        0.0819
     18 N         140.7333  137.0604  162.6857 N.2     1  UNL1       -0.0365
     19 C         139.7440  138.1310  162.3318 C.2     1  UNL1        0.1346
     20 C         138.4559  138.0933  161.5639 C.3     1  UNL1        0.0792
     21 C         137.6634  139.3513  161.3662 C.2     1  UNL1        0.0010
     22 C         138.1589  140.6473  161.9364 C.2     1  UNL1        0.0950
     23 N         139.4470  140.6851  162.7043 N.2     1  UNL1       -0.2354
     24 C         140.2395  139.4269  162.9019 C.2     1  UNL1        0.1834
@<TRIPOS>BOND
     1    11    12    1
     2    12    13    1
     3    12     1    1
     4     1     2   ar
     5     2     3   ar
     6     3     4   ar
     7     4     5   ar
     8     5     6   ar
     9     6     7   ar
    10     7    14    1
    11    14    16    1
    12    16    17    2
    13    17    18    1
    14    18    19    2
    15    19    20    1
    16    20    21    1
    17    21    22    2
    18    22    23    1
    19    23    24    2
    20     7     8   ar
    21     8     9   ar
    22     9    10   ar
    23    10     1   ar
    24    10     5   ar
    25    24    16    1
    26    24    19    1
    27    14    15    1
@<TRIPOS>MOLECULE
*****
 24 27 0 0 0
SMALL
GASTEIGER

@<TRIPOS>ATOM
      1 C         138.6646  139.4808  167.4330 C.ar    1  UNL1        0.1249
      2 N         138.9180  139.5845  168.9077 N.ar    1  UNL1       -0.2426
      3 C         139.7123  140.7340  169.4533 C.ar    1  UNL1        0.0987
      4 C         140.2533  141.7799  168.5241 C.ar    1  UNL1        0.0208
      5 C         139.9999  141.6762  167.0493 C.ar    1  UNL1        0.0062
      6 C         140.5409  142.7221  166.1200 C.ar    1  UNL1        0.0402
      7 C         140.2876  142.6184  164.6452 C.ar    1  UNL1        0.1357
      8 C         139.4933  141.4689  164.0997 C.ar    1  UNL1        0.0402
      9 C         138.9523  140.4230  165.0289 C.ar    1  UNL1        0.0049
     10 C         139.2056  140.5267  166.5037 C.ar    1  UNL1        0.0192
     11 F         136.5797  137.9344  167.5406 F       1  UNL1       -0.1915
     12 C         137.8703  138.3313  166.8874 C.3     1  UNL1        0.3581
     13 F         138.3666  137.5786  165.6886 F       1  UNL1       -0.1915
     14 N         140.8286  143.6643  163.7159 N.pl3   1  UNL1       -0.1958
     15 H         140.2419  144.3851  163.3911 H       1  UNL1        0.2986
     16 C         142.2633  143.6119  163.2816 C.2     1  UNL1        0.3707
     17 N         142.9683  144.6357  162.4420 N.2     1  UNL1        0.0819
     18 N         144.3857  144.1831  162.2521 N.2     1  UNL1       -0.0365
     19 C         144.5567  142.8795  162.9743 C.2     1  UNL1        0.1346
     20 C         145.7374  141.9683  163.1347 C.3     1  UNL1        0.0792
     21 C         145.6064  140.7042  163.9314 C.2     1  UNL1        0.0010
     22 C         144.2947  140.3511  164.5677 C.2     1  UNL1        0.0950
     23 N         143.1139  141.2624  164.4072 N.2     1  UNL1       -0.2354
     24 C         143.2450  142.5265  163.6105 C.2     1  UNL1        0.1834
@<TRIPOS>BOND
     1    11    12    1
     2    12    13    1
     3    12     1    1
     4     1     2   ar
     5     2     3   ar
     6     3     4   ar
     7     4     5   ar
     8     5     6   ar
     9     6     7   ar
    10     7    14    1
    11    14    16    1
    12    16    17    2
    13    17    18    1
    14    18    19    2
    15    19    20    1
    16    20    21    1
    17    21    22    2
    18    22    23    1
    19    23    24    2
    20     7     8   ar
    21     8     9   ar
    22     9    10   ar
    23    10     1   ar
    24    10     5   ar
    25    24    16    1
    26    24    19    1
    27    14    15    1
@<TRIPOS>MOLECULE
*****
 24 27 0 0 0
SMALL
GASTEIGER

@<TRIPOS>ATOM
      1 C         139.2060  139.8917  166.7149 C.ar    1  UNL1        0.1249
      2 N         140.1290  139.6302  167.8680 N.ar    1  UNL1       -0.2426
      3 C         141.0907  140.6912  168.3145 C.ar    1  UNL1        0.0987
      4 C         141.1294  142.0138  167.6080 C.ar    1  UNL1        0.0208
      5 C         140.2064  142.2753  166.4549 C.ar    1  UNL1        0.0062
      6 C         140.2451  143.5979  165.7482 C.ar    1  UNL1        0.0402
      7 C         139.3221  143.8594  164.5951 C.ar    1  UNL1        0.1357
      8 C         138.3605  142.7983  164.1486 C.ar    1  UNL1        0.0402
      9 C         138.3218  141.4758  164.8551 C.ar    1  UNL1        0.0049
     10 C         139.2448  141.2142  166.0083 C.ar    1  UNL1        0.0192
     11 F         137.1076  138.4257  167.1592 F       1  UNL1       -0.1915
     12 C         138.2444  138.8306  166.2683 C.3     1  UNL1        0.3581
     13 F         138.4195  138.1745  164.9309 F       1  UNL1       -0.1915
     14 N         139.3608  145.1820  163.8884 N.pl3   1  UNL1       -0.1958
     15 H         139.1178  146.0051  164.3708 H       1  UNL1        0.2986
     16 C         139.7697  145.2505  162.4469 C.2     1  UNL1        0.3707
     17 N         139.1743  146.1485  161.4033 N.2     1  UNL1        0.0819
     18 N         139.8823  145.8860  160.1072 N.2     1  UNL1       -0.0365
     19 C         140.9153  144.8257  160.3499 C.2     1  UNL1        0.1346
     20 C         141.9104  144.1671  159.4410 C.3     1  UNL1        0.0792
     21 C         142.8357  143.1158  159.9779 C.2     1  UNL1        0.0010
     22 C         142.7661  142.7230  161.4240 C.2     1  UNL1        0.0950
     23 N         141.7710  143.3816  162.3329 N.2     1  UNL1       -0.2354
     24 C         140.8457  144.4330  161.7959 C.2     1  UNL1        0.1834
@<TRIPOS>BOND
     1    11    12    1
     2    12    13    1
     3    12     1    1
     4     1     2   ar
     5     2     3   ar
     6     3     4   ar
     7     4     5   ar
     8     5     6   ar
     9     6     7   ar
    10     7    14    1
    11    14    16    1
    12    16    17    2
    13    17    18    1
    14    18    19    2
    15    19    20    1
    16    20    21    1
    17    21    22    2
    18    22    23    1
    19    23    24    2
    20     7     8   ar
    21     8     9   ar
    22     9    10   ar
    23    10     1   ar
    24    10     5   ar
    25    24    16    1
    26    24    19    1
    27    14    15    1
@<TRIPOS>MOLECULE
*****
 24 27 0 0 0
SMALL
GASTEIGER

@<TRIPOS>ATOM
      1 C         140.3048  140.6776  168.8118 C.ar    1  UNL1        0.1249
      2 N         141.7126  141.1685  168.9765 N.ar    1  UNL1       -0.2426
      3 C         142.7431  140.8554  167.9325 C.ar    1  UNL1        0.0987
      4 C         142.3658  140.0514  166.7237 C.ar    1  UNL1        0.0208
      5 C         140.9580  139.5606  166.5589 C.ar    1  UNL1        0.0062
      6 C         140.5807  138.7566  165.3501 C.ar    1  UNL1        0.0402
      7 C         139.1729  138.2657  165.1853 C.ar    1  UNL1        0.1357
      8 C         138.1424  138.5788  166.2294 C.ar    1  UNL1        0.0402
      9 C         138.5197  139.3827  167.4382 C.ar    1  UNL1        0.0049
     10 C         139.9275  139.8737  167.6030 C.ar    1  UNL1        0.0192
     11 F         139.1795  142.3754  170.4246 F       1  UNL1       -0.1915
     12 C         139.2743  140.9907  169.8559 C.3     1  UNL1        0.3581
     13 F         138.3386  139.9191  170.3312 F       1  UNL1       -0.1915
     14 N         138.7956  137.4617  163.9765 N.pl3   1  UNL1       -0.1958
     15 H         138.4964  136.5294  164.0791 H       1  UNL1        0.2986
     16 C         138.8740  138.0782  162.6113 C.2     1  UNL1        0.3707
     17 N         137.7610  138.7881  161.8991 N.2     1  UNL1        0.0819
     18 N         138.2784  139.2417  160.5663 N.2     1  UNL1       -0.0365
     19 C         139.7112  138.8121  160.4547 C.2     1  UNL1        0.1346
     20 C         140.7283  138.9827  159.3654 C.3     1  UNL1        0.0792
     21 C         142.1135  138.4343  159.5400 C.2     1  UNL1        0.0010
     22 C         142.4816  137.7152  160.8039 C.2     1  UNL1        0.0950
     23 N         141.4645  137.5445  161.8932 N.2     1  UNL1       -0.2354
     24 C         140.0793  138.0930  161.7185 C.2     1  UNL1        0.1834
@<TRIPOS>BOND
     1    11    12    1
     2    12    13    1
     3    12     1    1
     4     1     2   ar
     5     2     3   ar
     6     3     4   ar
     7     4     5   ar
     8     5     6   ar
     9     6     7   ar
    10     7    14    1
    11    14    16    1
    12    16    17    2
    13    17    18    1
    14    18    19    2
    15    19    20    1
    16    20    21    1
    17    21    22    2
    18    22    23    1
    19    23    24    2
    20     7     8   ar
    21     8     9   ar
    22     9    10   ar
    23    10     1   ar
    24    10     5   ar
    25    24    16    1
    26    24    19    1
    27    14    15    1
@<TRIPOS>MOLECULE
*****
 24 27 0 0 0
SMALL
GASTEIGER

@<TRIPOS>ATOM
      1 C         141.6068  140.2971  170.0266 C.ar    1  UNL1        0.1249
      2 N         140.5476  140.4217  171.0813 N.ar    1  UNL1       -0.2426
      3 C         139.0988  140.3280  170.7040 C.ar    1  UNL1        0.0987
      4 C         138.7093  140.1098  169.2721 C.ar    1  UNL1        0.0208
      5 C         139.7686  139.9853  168.2174 C.ar    1  UNL1        0.0062
      6 C         139.3791  139.7670  166.7853 C.ar    1  UNL1        0.0402
      7 C         140.4383  139.6425  165.7306 C.ar    1  UNL1        0.1357
      8 C         141.8871  139.7361  166.1079 C.ar    1  UNL1        0.0402
      9 C         142.2766  139.9543  167.5399 C.ar    1  UNL1        0.0049
     10 C         141.2173  140.0789  168.5947 C.ar    1  UNL1        0.0192
     11 F         143.6829  139.3175  171.2433 F       1  UNL1       -0.1915
     12 C         143.0556  140.3908  170.4039 C.3     1  UNL1        0.3581
     13 F         143.8770  141.5576  169.9419 F       1  UNL1       -0.1915
     14 N         140.0489  139.4242  164.2985 N.pl3   1  UNL1       -0.1958
     15 H         140.4118  138.6559  163.8013 H       1  UNL1        0.2986
     16 C         139.1065  140.3766  163.6241 C.2     1  UNL1        0.3707
     17 N         137.9235  139.9988  162.7826 N.2     1  UNL1        0.0819
     18 N         137.2675  141.2626  162.3112 N.2     1  UNL1       -0.0365
     19 C         138.0449  142.4215  162.8613 C.2     1  UNL1        0.1346
     20 C         137.8648  143.9047  162.7283 C.3     1  UNL1        0.0792
     21 C         138.8211  144.8403  163.4065 C.2     1  UNL1        0.0010
     22 C         139.9577  144.2927  164.2179 C.2     1  UNL1        0.0950
     23 N         140.1379  142.8094  164.3510 N.2     1  UNL1       -0.2354
     24 C         139.1815  141.8739  163.6727 C.2     1  UNL1        0.1834
@<TRIPOS>BOND
     1    11    12    1
     2    12    13    1
     3    12     1    1
     4     1     2   ar
     5     2     3   ar
     6     3     4   ar
     7     4     5   ar
     8     5     6   ar
     9     6     7   ar
    10     7    14    1
    11    14    16    1
    12    16    17    2
    13    17    18    1
    14    18    19    2
    15    19    20    1
    16    20    21    1
    17    21    22    2
    18    22    23    1
    19    23    24    2
    20     7     8   ar
    21     8     9   ar
    22     9    10   ar
    23    10     1   ar
    24    10     5   ar
    25    24    16    1
    26    24    19    1
    27    14    15    1
@<TRIPOS>MOLECULE
*****
 24 27 0 0 0
SMALL
GASTEIGER

@<TRIPOS>ATOM
      1 C         139.1382  139.9497  168.5463 C.ar    1  UNL1        0.1249
      2 N         137.9413  139.0621  168.3746 N.ar    1  UNL1       -0.2426
      3 C         137.6283  138.4771  167.0293 C.ar    1  UNL1        0.0987
      4 C         138.5121  138.7797  165.8558 C.ar    1  UNL1        0.0208
      5 C         139.7090  139.6673  166.0275 C.ar    1  UNL1        0.0062
      6 C         140.5929  139.9700  164.8540 C.ar    1  UNL1        0.0402
      7 C         141.7898  140.8576  165.0257 C.ar    1  UNL1        0.1357
      8 C         142.1029  141.4426  166.3710 C.ar    1  UNL1        0.0402
      9 C         141.2190  141.1399  167.5445 C.ar    1  UNL1        0.0049
     10 C         140.0221  140.2523  167.3728 C.ar    1  UNL1        0.0192
     11 F         139.1709  141.9829  170.1634 F       1  UNL1       -0.1915
     12 C         139.4513  140.5347  169.8916 C.3     1  UNL1        0.3581
     13 F         140.0448  139.6714  170.9651 F       1  UNL1       -0.1915
     14 N         142.6737  141.1602  163.8522 N.pl3   1  UNL1       -0.1958
     15 H         143.3017  140.4786  163.5202 H       1  UNL1        0.2986
     16 C         142.6008  142.5014  163.1845 C.2     1  UNL1        0.3707
     17 N         143.7512  143.2467  162.5752 N.2     1  UNL1        0.0819
     18 N         143.2261  144.5388  162.0231 N.2     1  UNL1       -0.0365
     19 C         141.7512  144.5920  162.2911 C.2     1  UNL1        0.1346
     20 C         140.7101  145.6244  161.9744 C.3     1  UNL1        0.0792
     21 C         139.2826  145.3977  162.3753 C.2     1  UNL1        0.0010
     22 C         138.8961  144.1385  163.0932 C.2     1  UNL1        0.0950
     23 N         139.9373  143.1061  163.4100 N.2     1  UNL1       -0.2354
     24 C         141.3648  143.3329  163.0089 C.2     1  UNL1        0.1834
@<TRIPOS>BOND
     1    11    12    1
     2    12    13    1
     3    12     1    1
     4     1     2   ar
     5     2     3   ar
     6     3     4   ar
     7     4     5   ar
     8     5     6   ar
     9     6     7   ar
    10     7    14    1
    11    14    16    1
    12    16    17    2
    13    17    18    1
    14    18    19    2
    15    19    20    1
    16    20    21    1
    17    21    22    2
    18    22    23    1
    19    23    24    2
    20     7     8   ar
    21     8     9   ar
    22     9    10   ar
    23    10     1   ar
    24    10     5   ar
    25    24    16    1
    26    24    19    1
    27    14    15    1
@<TRIPOS>MOLECULE
*****
 24 27 0 0 0
SMALL
GASTEIGER

@<TRIPOS>ATOM
      1 C         142.7995  138.9573  167.2281 C.ar    1  UNL1        0.1249
      2 N         142.9221  139.2581  168.6925 N.ar    1  UNL1       -0.2426
      3 C         141.8018  139.9483  169.4127 C.ar    1  UNL1        0.0987
      4 C         140.5591  140.3378  168.6685 C.ar    1  UNL1        0.0208
      5 C         140.4365  140.0370  167.2042 C.ar    1  UNL1        0.0062
      6 C         139.1937  140.4264  166.4599 C.ar    1  UNL1        0.0402
      7 C         139.0712  140.1257  164.9955 C.ar    1  UNL1        0.1357
      8 C         140.1914  139.4355  164.2753 C.ar    1  UNL1        0.0402
      9 C         141.4342  139.0460  165.0195 C.ar    1  UNL1        0.0049
     10 C         141.5568  139.3468  166.4839 C.ar    1  UNL1        0.0192
     11 F         144.4548  136.9651  167.0258 F       1  UNL1       -0.1915
     12 C         143.9197  138.2671  166.5079 C.3     1  UNL1        0.3581
     13 F         144.5049  138.8790  165.2697 F       1  UNL1       -0.1915
     14 N         137.8284  140.5151  164.2513 N.pl3   1  UNL1       -0.1958
     15 H         136.9588  140.1338  164.5116 H       1  UNL1        0.2986
     16 C         137.9104  141.4856  163.1105 C.2     1  UNL1        0.3707
     17 N         137.7388  142.9728  163.2040 N.2     1  UNL1        0.0819
     18 N         137.9008  143.5456  161.8272 N.2     1  UNL1       -0.0365
     19 C         138.1724  142.4123  160.8827 C.2     1  UNL1        0.1346
     20 C         138.4151  142.3752  159.4030 C.3     1  UNL1        0.0792
     21 C         138.6638  141.0651  158.7163 C.2     1  UNL1        0.0010
     22 C         138.6697  139.7918  159.5094 C.2     1  UNL1        0.0950
     23 N         138.4270  139.8289  160.9892 N.2     1  UNL1       -0.2354
     24 C         138.1783  141.1392  161.6759 C.2     1  UNL1        0.1834
@<TRIPOS>BOND
     1    11    12    1
     2    12    13    1
     3    12     1    1
     4     1     2   ar
     5     2     3   ar
     6     3     4   ar
     7     4     5   ar
     8     5     6   ar
     9     6     7   ar
    10     7    14    1
    11    14    16    1
    12    16    17    2
    13    17    18    1
    14    18    19    2
    15    19    20    1
    16    20    21    1
    17    21    22    2
    18    22    23    1
    19    23    24    2
    20     7     8   ar
    21     8     9   ar
    22     9    10   ar
    23    10     1   ar
    24    10     5   ar
    25    24    16    1
    26    24    19    1
    27    14    15    1
@<TRIPOS>MOLECULE
*****
 24 27 0 0 0
SMALL
GASTEIGER

@<TRIPOS>ATOM
      1 C         139.5138  140.0965  168.4741 C.ar    1  UNL1        0.1249
      2 N         138.6096  139.2186  167.6607 N.ar    1  UNL1       -0.2426
      3 C         138.8508  139.0519  166.1896 C.ar    1  UNL1        0.0987
      4 C         139.9961  139.7630  165.5320 C.ar    1  UNL1        0.0208
      5 C         140.9003  140.6409  166.3455 C.ar    1  UNL1        0.0062
      6 C         142.0456  141.3521  165.6879 C.ar    1  UNL1        0.0402
      7 C         142.9498  142.2300  166.5013 C.ar    1  UNL1        0.1357
      8 C         142.7086  142.3967  167.9724 C.ar    1  UNL1        0.0402
      9 C         141.5633  141.6855  168.6300 C.ar    1  UNL1        0.0049
     10 C         140.6591  140.8076  167.8165 C.ar    1  UNL1        0.0192
     11 F         140.1878  139.6048  170.9346 F       1  UNL1       -0.1915
     12 C         139.2726  140.2632  169.9452 C.3     1  UNL1        0.3581
     13 F         138.1163  141.0883  170.4269 F       1  UNL1       -0.1915
     14 N         144.0952  142.9412  165.8437 N.pl3   1  UNL1       -0.1958
     15 H         144.5865  143.6403  166.3327 H       1  UNL1        0.2986
     16 C         144.4920  142.5872  164.4412 C.2     1  UNL1        0.3707
     17 N         145.6714  141.7502  164.0432 N.2     1  UNL1        0.0819
     18 N         145.6874  141.6538  162.5464 N.2     1  UNL1       -0.0365
     19 C         144.5177  142.4312  162.0193 C.2     1  UNL1        0.1346
     20 C         144.0300  142.6883  160.6243 C.3     1  UNL1        0.0792
     21 C         142.8035  143.5222  160.4003 C.2     1  UNL1        0.0010
     22 C         142.0646  144.0991  161.5714 C.2     1  UNL1        0.0950
     23 N         142.5524  143.8420  162.9665 N.2     1  UNL1       -0.2354
     24 C         143.7790  143.0080  163.1904 C.2     1  UNL1        0.1834
@<TRIPOS>BOND
     1    11    12    1
     2    12    13    1
     3    12     1    1
     4     1     2   ar
     5     2     3   ar
     6     3     4   ar
     7     4     5   ar
     8     5     6   ar
     9     6     7   ar
    10     7    14    1
    11    14    16    1
    12    16    17    2
    13    17    18    1
    14    18    19    2
    15    19    20    1
    16    20    21    1
    17    21    22    2
    18    22    23    1
    19    23    24    2
    20     7     8   ar
    21     8     9   ar
    22     9    10   ar
    23    10     1   ar
    24    10     5   ar
    25    24    16    1
    26    24    19    1
    27    14    15    1
