@<TRIPOS>MOLECULE
*****
 26 30 0 0 0
SMALL
GASTEIGER

@<TRIPOS>ATOM
      1 N         144.1671  143.3329  165.7770 N.pl3   1  UNL1       -0.2535
      2 H         145.0204  143.7298  166.0662 H       1  UNL1        0.1579
      3 C         143.6598  143.5760  164.3865 C.2     1  UNL1        0.2847
      4 N         144.2734  143.0556  163.1205 N.2     1  UNL1       -0.2204
      5 C         143.4426  143.5403  161.9695 C.3     1  UNL1        0.1712
      6 C         142.3157  144.3603  162.5240 C.3     1  UNL1        0.1729
      7 C         141.2479  145.1504  163.2209 C.3     1  UNL1        0.1147
      8 N         140.1751  145.8292  162.4219 N.3     1  UNL1       -0.2697
      9 C         140.1700  145.7178  160.9261 C.3     1  UNL1        0.0723
     10 C         141.2377  144.9277  160.2292 C.3     1  UNL1        0.0209
     11 C         142.3106  144.2490  161.0282 C.3     1  UNL1        0.0429
     12 C         141.8150  144.6771  162.1512 C.3     1  UNL1        0.0209
     13 C         141.2456  145.0985  162.5228 C.3     1  UNL1        0.0723
     14 O         142.4499  144.3824  164.0178 O.2     1  UNL1       -0.4536
     15 C         141.5497  140.6843  167.1498 C.ar    1  UNL1        0.0858
     16 C         142.3425  141.5324  166.1997 C.ar    1  UNL1        0.0537
     17 C         143.3744  142.4849  166.7269 C.ar    1  UNL1        0.1387
     18 N         143.6135  142.5893  168.2041 N.ar    1  UNL1       -0.2088
     19 C         142.8207  141.7414  169.1540 C.ar    1  UNL1        0.2000
     20 N         141.7888  140.7889  168.6268 N.ar    1  UNL1       -0.2239
     21 C         138.4540  137.8268  165.5681 C.ar    1  UNL1        0.0000
     22 C         139.8268  137.8551  164.9641 C.ar    1  UNL1        0.0000
     23 C         140.8587  138.8076  165.4914 C.ar    1  UNL1        0.0015
     24 C         140.5178  139.7318  166.6225 C.ar    1  UNL1        0.0178
     25 C         139.1450  139.7036  167.2265 C.ar    1  UNL1        0.0015
     26 C         138.1131  138.7511  166.6993 C.ar    1  UNL1        0.0000
@<TRIPOS>BOND
     1    21    22   ar
     2    22    23   ar
     3    23    24   ar
     4    24    15    1
     5    15    16   ar
     6    16    17   ar
     7    17     1    1
     8     1     3    1
     9     3     4    2
    10     4     5    1
    11     6     5    1
    12     6     7    1
    13     7     8    1
    14     8     9    1
    15     9    10    1
    16    10    11    1
    17    11    12    1
    18    12    13    1
    19     6    14    1
    20    17    18   ar
    21    18    19   ar
    22    19    20   ar
    23    24    25   ar
    24    25    26   ar
    25    26    21   ar
    26    20    15   ar
    27    14     3    1
    28    11     6    1
    29    13     8    1
    30     1     2    1
@<TRIPOS>MOLECULE
*****
 26 30 0 0 0
SMALL
GASTEIGER

@<TRIPOS>ATOM
      1 N         140.5285  137.8134  163.9534 N.pl3   1  UNL1       -0.2535
      2 H         140.2267  137.1210  163.3220 H       1  UNL1        0.1579
      3 C         141.8146  138.5448  163.7062 C.2     1  UNL1        0.2847
      4 N         142.9213  138.0995  162.7968 N.2     1  UNL1       -0.2204
      5 C         144.0104  139.1294  162.8535 C.3     1  UNL1        0.1712
      6 C         143.5769  140.2111  163.7979 C.3     1  UNL1        0.1729
      7 C         143.0113  141.2104  164.7630 C.3     1  UNL1        0.1147
      8 N         143.7969  142.4379  165.1181 N.3     1  UNL1       -0.2697
      9 C         145.1481  142.6661  164.5081 C.3     1  UNL1        0.0723
     10 C         145.7137  141.6668  163.5430 C.3     1  UNL1        0.0209
     11 C         144.9281  140.4393  163.1879 C.3     1  UNL1        0.0429
     12 C         143.9435  140.7839  163.9636 C.3     1  UNL1        0.0209
     13 C         143.6419  141.3169  164.4783 C.3     1  UNL1        0.0723
     14 O         142.2198  139.8497  164.3249 O.2     1  UNL1       -0.4536
     15 C         139.2670  139.6014  167.2643 C.ar    1  UNL1        0.0858
     16 C         140.0933  139.2778  166.0548 C.ar    1  UNL1        0.0537
     17 C         139.7024  138.1370  165.1628 C.ar    1  UNL1        0.1387
     18 N         138.4852  137.3198  165.4802 N.ar    1  UNL1       -0.2088
     19 C         137.6590  137.6434  166.6896 C.ar    1  UNL1        0.2000
     20 N         138.0500  138.7842  167.5816 N.ar    1  UNL1       -0.2239
     21 C         140.4400  143.0239  169.9403 C.ar    1  UNL1        0.0000
     22 C         140.7849  143.0605  168.4810 C.ar    1  UNL1        0.0000
     23 C         140.3939  141.9197  167.5890 C.ar    1  UNL1        0.0015
     24 C         139.6580  140.7422  168.1563 C.ar    1  UNL1        0.0178
     25 C         139.3131  140.7055  169.6157 C.ar    1  UNL1        0.0015
     26 C         139.7041  141.8464  170.5077 C.ar    1  UNL1        0.0000
@<TRIPOS>BOND
     1    21    22   ar
     2    22    23   ar
     3    23    24   ar
     4    24    15    1
     5    15    16   ar
     6    16    17   ar
     7    17     1    1
     8     1     3    1
     9     3     4    2
    10     4     5    1
    11     6     5    1
    12     6     7    1
    13     7     8    1
    14     8     9    1
    15     9    10    1
    16    10    11    1
    17    11    12    1
    18    12    13    1
    19     6    14    1
    20    17    18   ar
    21    18    19   ar
    22    19    20   ar
    23    24    25   ar
    24    25    26   ar
    25    26    21   ar
    26    20    15   ar
    27    14     3    1
    28    11     6    1
    29    13     8    1
    30     1     2    1
@<TRIPOS>MOLECULE
*****
 26 30 0 0 0
SMALL
GASTEIGER

@<TRIPOS>ATOM
      1 N         138.7645  139.7692  163.8515 N.pl3   1  UNL1       -0.2535
      2 H         138.3008  139.0810  163.3218 H       1  UNL1        0.1579
      3 C         139.4715  140.8974  163.1608 C.2     1  UNL1        0.2847
      4 N         140.8179  140.8236  162.5037 N.2     1  UNL1       -0.2204
      5 C         141.1348  142.1782  161.9427 C.3     1  UNL1        0.1712
      6 C         139.9843  143.0892  162.2531 C.3     1  UNL1        0.1729
      7 C         138.7662  143.8773  162.6340 C.3     1  UNL1        0.1147
      8 N         138.6619  145.3255  162.2576 N.3     1  UNL1       -0.2697
      9 C         139.7758  145.9857  161.5004 C.3     1  UNL1        0.0723
     10 C         140.9939  145.1977  161.1195 C.3     1  UNL1        0.0209
     11 C         141.0981  143.7494  161.4959 C.3     1  UNL1        0.0429
     12 C         139.9356  143.7650  162.0775 C.3     1  UNL1        0.0209
     13 C         139.2860  144.1854  162.2806 C.3     1  UNL1        0.0723
     14 O         138.9563  142.2976  163.0059 O.2     1  UNL1       -0.4536
     15 C         139.7552  140.4070  167.6412 C.ar    1  UNL1        0.0858
     16 C         139.7559  140.4867  166.1432 C.ar    1  UNL1        0.0537
     17 C         138.7638  139.6895  165.3494 C.ar    1  UNL1        0.1387
     18 N         137.7711  138.8126  166.0534 N.ar    1  UNL1       -0.2088
     19 C         137.7704  138.7329  167.5513 C.ar    1  UNL1        0.2000
     20 N         138.7625  139.5301  168.3451 N.ar    1  UNL1       -0.2239
     21 C         142.7315  142.7985  170.0228 C.ar    1  UNL1        0.0000
     22 C         143.1352  141.4860  169.4192 C.ar    1  UNL1        0.0000
     23 C         142.1431  140.6888  168.6253 C.ar    1  UNL1        0.0015
     24 C         140.7473  141.2042  168.4351 C.ar    1  UNL1        0.0178
     25 C         140.3437  142.5167  169.0387 C.ar    1  UNL1        0.0015
     26 C         141.3358  143.3139  169.8325 C.ar    1  UNL1        0.0000
@<TRIPOS>BOND
     1    21    22   ar
     2    22    23   ar
     3    23    24   ar
     4    24    15    1
     5    15    16   ar
     6    16    17   ar
     7    17     1    1
     8     1     3    1
     9     3     4    2
    10     4     5    1
    11     6     5    1
    12     6     7    1
    13     7     8    1
    14     8     9    1
    15     9    10    1
    16    10    11    1
    17    11    12    1
    18    12    13    1
    19     6    14    1
    20    17    18   ar
    21    18    19   ar
    22    19    20   ar
    23    24    25   ar
    24    25    26   ar
    25    26    21   ar
    26    20    15   ar
    27    14     3    1
    28    11     6    1
    29    13     8    1
    30     1     2    1
@<TRIPOS>MOLECULE
*****
 26 30 0 0 0
SMALL
GASTEIGER

@<TRIPOS>ATOM
      1 N         143.0840  138.2158  158.6842 N.pl3   1  UNL1       -0.2535
      2 H         143.7012  138.9309  158.4069 H       1  UNL1        0.1579
      3 C         142.6797  138.0901  160.1232 C.2     1  UNL1        0.2847
      4 N         143.6107  137.9947  161.2955 N.2     1  UNL1       -0.2204
      5 C         142.7798  137.8834  162.5394 C.3     1  UNL1        0.1712
      6 C         141.3353  137.9101  162.1359 C.3     1  UNL1        0.1729
      7 C         139.9410  137.9498  161.5842 C.3     1  UNL1        0.1147
      8 N         138.7649  137.8638  162.5112 N.3     1  UNL1       -0.2697
      9 C         138.9831  137.7381  163.9899 C.3     1  UNL1        0.0723
     10 C         140.3773  137.6984  164.5416 C.3     1  UNL1        0.0209
     11 C         141.5534  137.7844  163.6146 C.3     1  UNL1        0.0429
     12 C         140.7864  137.8700  162.5685 C.3     1  UNL1        0.0209
     13 C         140.0428  137.8911  162.2743 C.3     1  UNL1        0.0723
     14 O         141.2735  138.0378  160.6426 O.2     1  UNL1       -0.4536
     15 C         142.6881  134.9659  156.4410 C.ar    1  UNL1        0.0858
     16 C         143.2244  135.9298  157.4577 C.ar    1  UNL1        0.0537
     17 C         142.5477  137.2519  157.6677 C.ar    1  UNL1        0.1387
     18 N         141.3348  137.6102  156.8611 N.ar    1  UNL1       -0.2088
     19 C         140.7986  136.6464  155.8445 C.ar    1  UNL1        0.2000
     20 N         141.4753  135.3242  155.6345 N.ar    1  UNL1       -0.2239
     21 C         144.7180  130.9995  155.8111 C.ar    1  UNL1        0.0000
     22 C         143.7047  131.4893  154.8195 C.ar    1  UNL1        0.0000
     23 C         143.0281  132.8114  155.0295 C.ar    1  UNL1        0.0015
     24 C         143.3647  133.6438  156.2311 C.ar    1  UNL1        0.0178
     25 C         144.3781  133.1540  157.2227 C.ar    1  UNL1        0.0015
     26 C         145.0547  131.8318  157.0127 C.ar    1  UNL1        0.0000
@<TRIPOS>BOND
     1    21    22   ar
     2    22    23   ar
     3    23    24   ar
     4    24    15    1
     5    15    16   ar
     6    16    17   ar
     7    17     1    1
     8     1     3    1
     9     3     4    2
    10     4     5    1
    11     6     5    1
    12     6     7    1
    13     7     8    1
    14     8     9    1
    15     9    10    1
    16    10    11    1
    17    11    12    1
    18    12    13    1
    19     6    14    1
    20    17    18   ar
    21    18    19   ar
    22    19    20   ar
    23    24    25   ar
    24    25    26   ar
    25    26    21   ar
    26    20    15   ar
    27    14     3    1
    28    11     6    1
    29    13     8    1
    30     1     2    1
@<TRIPOS>MOLECULE
*****
 26 30 0 0 0
SMALL
GASTEIGER

@<TRIPOS>ATOM
      1 N         140.6418  144.4669  158.3038 N.pl3   1  UNL1       -0.2535
      2 H         141.5249  144.0827  158.0992 H       1  UNL1        0.1579
      3 C         140.1666  144.5398  159.7246 C.2     1  UNL1        0.2847
      4 N         140.5301  145.5990  160.7226 N.2     1  UNL1       -0.2204
      5 C         139.8326  145.2801  162.0117 C.3     1  UNL1        0.1712
      6 C         139.0379  144.0240  161.8105 C.3     1  UNL1        0.1729
      7 C         138.2973  142.7670  161.4618 C.3     1  UNL1        0.1147
      8 N         137.4458  142.0877  162.4930 N.3     1  UNL1       -0.2697
      9 C         137.3348  142.6652  163.8728 C.3     1  UNL1        0.0723
     10 C         138.0754  143.9221  164.2215 C.3     1  UNL1        0.0209
     11 C         138.9270  144.6015  163.1903 C.3     1  UNL1        0.0429
     12 C         138.6405  143.7069  162.2917 C.3     1  UNL1        0.0209
     13 C         138.2455  143.0366  162.1057 C.3     1  UNL1        0.0723
     14 O         139.2444  143.5664  160.3970 O.2     1  UNL1       -0.4536
     15 C         138.9854  146.9303  155.6698 C.ar    1  UNL1        0.0858
     16 C         139.8557  146.4180  156.7790 C.ar    1  UNL1        0.0537
     17 C         139.7715  144.9792  157.1947 C.ar    1  UNL1        0.1387
     18 N         138.8171  144.0528  156.5013 N.ar    1  UNL1       -0.2088
     19 C         137.9469  144.5651  155.3922 C.ar    1  UNL1        0.2000
     20 N         138.0310  146.0039  154.9765 N.ar    1  UNL1       -0.2239
     21 C         139.2379  151.2467  154.4227 C.ar    1  UNL1        0.0000
     22 C         139.8665  150.1824  153.5729 C.ar    1  UNL1        0.0000
     23 C         139.7824  148.7436  153.9886 C.ar    1  UNL1        0.0015
     24 C         139.0695  148.3691  155.2541 C.ar    1  UNL1        0.0178
     25 C         138.4409  149.4334  156.1039 C.ar    1  UNL1        0.0015
     26 C         138.5251  150.8721  155.6882 C.ar    1  UNL1        0.0000
@<TRIPOS>BOND
     1    21    22   ar
     2    22    23   ar
     3    23    24   ar
     4    24    15    1
     5    15    16   ar
     6    16    17   ar
     7    17     1    1
     8     1     3    1
     9     3     4    2
    10     4     5    1
    11     6     5    1
    12     6     7    1
    13     7     8    1
    14     8     9    1
    15     9    10    1
    16    10    11    1
    17    11    12    1
    18    12    13    1
    19     6    14    1
    20    17    18   ar
    21    18    19   ar
    22    19    20   ar
    23    24    25   ar
    24    25    26   ar
    25    26    21   ar
    26    20    15   ar
    27    14     3    1
    28    11     6    1
    29    13     8    1
    30     1     2    1
@<TRIPOS>MOLECULE
*****
 26 30 0 0 0
SMALL
GASTEIGER

@<TRIPOS>ATOM
      1 N         144.5796  141.9301  164.0637 N.pl3   1  UNL1       -0.2535
      2 H         145.5477  142.0980  164.1267 H       1  UNL1        0.1579
      3 C         143.7646  142.6255  163.0138 C.2     1  UNL1        0.2847
      4 N         143.9160  142.4649  161.5301 N.2     1  UNL1       -0.2204
      5 C         142.9000  143.3438  160.8627 C.3     1  UNL1        0.1712
      6 C         142.1207  144.0475  161.9339 C.3     1  UNL1        0.1729
      7 C         141.4309  144.6747  163.1089 C.3     1  UNL1        0.1147
      8 N         140.3134  145.6510  162.8892 N.3     1  UNL1       -0.2697
      9 C         139.8858  146.0000  161.4945 C.3     1  UNL1        0.0723
     10 C         140.5757  145.3728  160.3195 C.3     1  UNL1        0.0209
     11 C         141.6931  144.3966  160.5392 C.3     1  UNL1        0.0429
     12 C         141.5992  144.5031  161.8314 C.3     1  UNL1        0.0209
     13 C         141.2313  144.8376  162.4580 C.3     1  UNL1        0.0723
     14 O         142.6550  143.6036  163.2633 O.2     1  UNL1       -0.4536
     15 C         142.3410  140.5500  167.0359 C.ar    1  UNL1        0.0858
     16 C         143.0009  141.5012  166.0820 C.ar    1  UNL1        0.0537
     17 C         143.9197  140.9790  165.0175 C.ar    1  UNL1        0.1387
     18 N         144.1785  139.5056  164.9068 N.ar    1  UNL1       -0.2088
     19 C         143.5186  138.5545  165.8607 C.ar    1  UNL1        0.2000
     20 N         142.5999  139.0767  166.9252 N.ar    1  UNL1       -0.2239
     21 C         139.5847  142.1167  170.2293 C.ar    1  UNL1        0.0000
     22 C         140.5547  143.0417  169.5559 C.ar    1  UNL1        0.0000
     23 C         141.4735  142.5194  168.4914 C.ar    1  UNL1        0.0015
     24 C         141.4222  141.0722  168.1004 C.ar    1  UNL1        0.0178
     25 C         140.4522  140.1472  168.7738 C.ar    1  UNL1        0.0015
     26 C         139.5335  140.6695  169.8383 C.ar    1  UNL1        0.0000
@<TRIPOS>BOND
     1    21    22   ar
     2    22    23   ar
     3    23    24   ar
     4    24    15    1
     5    15    16   ar
     6    16    17   ar
     7    17     1    1
     8     1     3    1
     9     3     4    2
    10     4     5    1
    11     6     5    1
    12     6     7    1
    13     7     8    1
    14     8     9    1
    15     9    10    1
    16    10    11    1
    17    11    12    1
    18    12    13    1
    19     6    14    1
    20    17    18   ar
    21    18    19   ar
    22    19    20   ar
    23    24    25   ar
    24    25    26   ar
    25    26    21   ar
    26    20    15   ar
    27    14     3    1
    28    11     6    1
    29    13     8    1
    30     1     2    1
@<TRIPOS>MOLECULE
*****
 26 30 0 0 0
SMALL
GASTEIGER

@<TRIPOS>ATOM
      1 N         144.3100  142.5497  160.7810 N.pl3   1  UNL1       -0.2535
      2 H         145.0285  142.6084  160.1104 H       1  UNL1        0.1579
      3 C         144.4787  141.6728  161.9862 C.2     1  UNL1        0.2847
      4 N         145.7071  141.5767  162.8417 N.2     1  UNL1       -0.2204
      5 C         145.4362  140.5825  163.9317 C.3     1  UNL1        0.1712
      6 C         144.0404  140.0641  163.7499 C.3     1  UNL1        0.1729
      7 C         142.6346  139.6403  163.4432 C.3     1  UNL1        0.1147
      8 N         141.9506  138.6262  164.3113 N.3     1  UNL1       -0.2697
      9 C         142.6724  138.0359  165.4863 C.3     1  UNL1        0.0723
     10 C         144.0782  138.4597  165.7931 C.3     1  UNL1        0.0209
     11 C         144.7621  139.4738  164.9249 C.3     1  UNL1        0.0429
     12 C         143.7212  139.5909  164.1551 C.3     1  UNL1        0.0209
     13 C         142.9714  139.3648  163.9915 C.3     1  UNL1        0.0723
     14 O         143.4487  140.7380  162.5475 O.2     1  UNL1       -0.4536
     15 C         140.7807  144.2044  161.5267 C.ar    1  UNL1        0.0858
     16 C         142.0442  143.4168  161.7103 C.ar    1  UNL1        0.0537
     17 C         143.0467  143.3372  160.5974 C.ar    1  UNL1        0.1387
     18 N         142.7858  144.0451  159.3009 N.ar    1  UNL1       -0.2088
     19 C         141.5225  144.8326  159.1174 C.ar    1  UNL1        0.2000
     20 N         140.5200  144.9122  160.2303 N.ar    1  UNL1       -0.2239
     21 C         137.7732  144.4433  164.8655 C.ar    1  UNL1        0.0000
     22 C         139.1932  144.8641  165.1036 C.ar    1  UNL1        0.0000
     23 C         140.1957  144.7845  163.9907 C.ar    1  UNL1        0.0015
     24 C         139.7782  144.2841  162.6397 C.ar    1  UNL1        0.0178
     25 C         138.3583  143.8632  162.4016 C.ar    1  UNL1        0.0015
     26 C         137.3558  143.9428  163.5145 C.ar    1  UNL1        0.0000
@<TRIPOS>BOND
     1    21    22   ar
     2    22    23   ar
     3    23    24   ar
     4    24    15    1
     5    15    16   ar
     6    16    17   ar
     7    17     1    1
     8     1     3    1
     9     3     4    2
    10     4     5    1
    11     6     5    1
    12     6     7    1
    13     7     8    1
    14     8     9    1
    15     9    10    1
    16    10    11    1
    17    11    12    1
    18    12    13    1
    19     6    14    1
    20    17    18   ar
    21    18    19   ar
    22    19    20   ar
    23    24    25   ar
    24    25    26   ar
    25    26    21   ar
    26    20    15   ar
    27    14     3    1
    28    11     6    1
    29    13     8    1
    30     1     2    1
@<TRIPOS>MOLECULE
*****
 26 30 0 0 0
SMALL
GASTEIGER

@<TRIPOS>ATOM
      1 N         138.3782  138.9722  165.1737 N.pl3   1  UNL1       -0.2535
      2 H         137.6401  138.3695  165.4212 H       1  UNL1        0.1579
      3 C         139.4204  139.3378  166.1886 C.2     1  UNL1        0.2847
      4 N         140.9041  139.3390  165.9678 N.2     1  UNL1       -0.2204
      5 C         141.5625  139.7685  167.2453 C.3     1  UNL1        0.1712
      6 C         140.4858  140.0327  168.2557 C.3     1  UNL1        0.1729
      7 C         139.3061  140.2572  169.1545 C.3     1  UNL1        0.1147
      8 N         139.5164  140.7083  170.5695 N.3     1  UNL1       -0.2697
      9 C         140.9063  140.9349  171.0857 C.3     1  UNL1        0.0723
     10 C         142.0861  140.7104  170.1870 C.3     1  UNL1        0.0209
     11 C         141.8758  140.2593  168.7720 C.3     1  UNL1        0.0429
     12 C         140.5839  140.2432  168.9161 C.3     1  UNL1        0.0209
     13 C         139.9548  140.3629  169.3954 C.3     1  UNL1        0.0723
     14 O         139.1619  139.7665  167.6026 O.2     1  UNL1       -0.4536
     15 C         138.8895  141.5209  162.1749 C.ar    1  UNL1        0.0858
     16 C         138.8072  140.9683  163.5671 C.ar    1  UNL1        0.0537
     17 C         138.4605  139.5248  163.7817 C.ar    1  UNL1        0.1387
     18 N         138.1962  138.6339  162.6042 N.ar    1  UNL1       -0.2088
     19 C         138.2786  139.1865  161.2121 C.ar    1  UNL1        0.2000
     20 N         138.6252  140.6300  160.9976 N.ar    1  UNL1       -0.2239
     21 C         139.9294  145.8515  161.5312 C.ar    1  UNL1        0.0000
     22 C         139.1069  145.4461  162.7183 C.ar    1  UNL1        0.0000
     23 C         138.7602  144.0026  162.9329 C.ar    1  UNL1        0.0015
     24 C         139.2361  142.9645  161.9604 C.ar    1  UNL1        0.0178
     25 C         140.0586  143.3699  160.7733 C.ar    1  UNL1        0.0015
     26 C         140.4052  144.8134  160.5587 C.ar    1  UNL1        0.0000
@<TRIPOS>BOND
     1    21    22   ar
     2    22    23   ar
     3    23    24   ar
     4    24    15    1
     5    15    16   ar
     6    16    17   ar
     7    17     1    1
     8     1     3    1
     9     3     4    2
    10     4     5    1
    11     6     5    1
    12     6     7    1
    13     7     8    1
    14     8     9    1
    15     9    10    1
    16    10    11    1
    17    11    12    1
    18    12    13    1
    19     6    14    1
    20    17    18   ar
    21    18    19   ar
    22    19    20   ar
    23    24    25   ar
    24    25    26   ar
    25    26    21   ar
    26    20    15   ar
    27    14     3    1
    28    11     6    1
    29    13     8    1
    30     1     2    1
@<TRIPOS>MOLECULE
*****
 26 30 0 0 0
SMALL
GASTEIGER

@<TRIPOS>ATOM
      1 N         141.8747  138.0146  157.0237 N.pl3   1  UNL1       -0.2535
      2 H         141.5332  138.6630  156.3663 H       1  UNL1        0.1579
      3 C         141.9888  136.5645  156.6574 C.2     1  UNL1        0.2847
      4 N         141.1658  135.8476  155.6284 N.2     1  UNL1       -0.2204
      5 C         141.6144  134.4167  155.5909 C.3     1  UNL1        0.1712
      6 C         142.7146  134.2493  156.5966 C.3     1  UNL1        0.1729
      7 C         143.7969  134.2343  157.6350 C.3     1  UNL1        0.1147
      8 N         144.5359  132.9628  157.9299 N.3     1  UNL1       -0.2697
      9 C         144.1927  131.7061  157.1862 C.3     1  UNL1        0.0723
     10 C         143.1105  131.7211  156.1477 C.3     1  UNL1        0.0209
     11 C         142.3714  132.9927  155.8529 C.3     1  UNL1        0.0429
     12 C         143.0595  133.6559  156.7342 C.3     1  UNL1        0.0209
     13 C         143.6367  133.6479  157.2880 C.3     1  UNL1        0.0723
     14 O         142.9460  135.5767  157.2557 O.2     1  UNL1       -0.4536
     15 C         141.8679  138.5539  160.9555 C.ar    1  UNL1        0.0858
     16 C         141.4615  138.0916  159.5875 C.ar    1  UNL1        0.0537
     17 C         142.2810  138.4768  158.3916 C.ar    1  UNL1        0.1387
     18 N         143.5067  139.3242  158.5637 N.ar    1  UNL1       -0.2088
     19 C         143.9130  139.7863  159.9316 C.ar    1  UNL1        0.2000
     20 N         143.0936  139.4012  161.1275 N.ar    1  UNL1       -0.2239
     21 C         139.4095  137.3984  164.5431 C.ar    1  UNL1        0.0000
     22 C         138.7312  137.8040  163.2682 C.ar    1  UNL1        0.0000
     23 C         139.5507  138.1892  162.0723 C.ar    1  UNL1        0.0015
     24 C         141.0484  138.1687  162.1514 C.ar    1  UNL1        0.0178
     25 C         141.7267  137.7631  163.4263 C.ar    1  UNL1        0.0015
     26 C         140.9073  137.3779  164.6222 C.ar    1  UNL1        0.0000
@<TRIPOS>BOND
     1    21    22   ar
     2    22    23   ar
     3    23    24   ar
     4    24    15    1
     5    15    16   ar
     6    16    17   ar
     7    17     1    1
     8     1     3    1
     9     3     4    2
    10     4     5    1
    11     6     5    1
    12     6     7    1
    13     7     8    1
    14     8     9    1
    15     9    10    1
    16    10    11    1
    17    11    12    1
    18    12    13    1
    19     6    14    1
    20    17    18   ar
    21    18    19   ar
    22    19    20   ar
    23    24    25   ar
    24    25    26   ar
    25    26    21   ar
    26    20    15   ar
    27    14     3    1
    28    11     6    1
    29    13     8    1
    30     1     2    1
