@<TRIPOS>MOLECULE
*****
 43 48 0 0 0
SMALL
GASTEIGER

@<TRIPOS>ATOM
      1 C         140.0717  139.6074  159.9366 C.3     1  UNL1        0.0439
      2 C         143.1875  141.6979  161.2294 C.ar    1  UNL1        0.0833
      3 C         141.8583  141.0033  161.2053 C.ar    1  UNL1        0.0150
      4 C         141.4010  140.3020  159.9607 C.ar    1  UNL1       -0.0181
      5 C         142.2729  140.2953  158.7402 C.ar    1  UNL1        0.0104
      6 C         143.6022  140.9899  158.7643 C.ar    1  UNL1        0.0492
      7 C         144.0595  141.6912  160.0089 C.ar    1  UNL1        0.0336
      8 C         144.0637  145.4380  164.8523 C.3     1  UNL1        0.0540
      9 C         144.0476  144.1184  164.1393 C.ar    1  UNL1        0.0805
     10 C         144.6495  142.8386  164.6393 C.ar    1  UNL1        0.0312
     11 C         144.4006  141.7762  163.6101 C.ar    1  UNL1        0.0621
     12 C         144.8318  140.3423  163.7009 C.3     1  UNL1        0.0522
     13 N         143.6448  142.3993  162.4740 N.ar    1  UNL1       -0.2340
     14 N         143.4266  143.8468  162.8010 N.ar    1  UNL1       -0.1698
     15 N         144.4742  140.9831  157.5439 N.pl3   1  UNL1       -0.3027
     16 C         144.2950  139.9209  156.5000 C.3     1  UNL1        0.1231
     17 C         145.1670  139.9142  155.2795 C.3     1  UNL1        0.1636
     18 O         146.2181  140.9697  155.1028 O.3     1  UNL1       -0.3501
     19 C         146.3973  142.0318  156.1466 C.3     1  UNL1        0.1636
     20 C         145.5253  142.0386  157.3672 C.3     1  UNL1        0.1231
     21 C         138.8580  140.3279  159.4289 C.3     1  UNL1        0.0474
     22 C         138.1240  141.2830  160.3230 C.2     1  UNL1        0.0507
     23 O         138.2552  142.7619  160.1092 O.co2   1  UNL1       -0.5492
     24 O         137.2589  140.7591  161.4307 O.co2   1  UNL1       -0.5492
     25 C         139.9561  138.1922  160.4203 C.3     1  UNL1        0.0768
     26 N         140.0516  137.8905  161.8865 N.3     1  UNL1       -0.2724
     27 C         141.3036  137.5406  162.6350 C.3     1  UNL1        0.0721
     28 C         140.9377  137.3196  164.0728 C.3     1  UNL1        0.0187
     29 C         139.4596  137.5330  164.2130 C.3     1  UNL1        0.0178
     30 C         138.9120  137.8858  162.8618 C.3     1  UNL1        0.0721
     31 C         138.6681  137.4144  165.4816 C.3     1  UNL1        0.0077
     32 C         138.1454  138.6472  166.1575 C.3     1  UNL1        0.0459
     33 C         138.6899  139.9946  165.7855 C.ar    1  UNL1        0.0603
     34 C         139.9715  140.4800  166.3954 C.ar    1  UNL1        0.0145
     35 C         140.5160  141.8272  166.0235 C.ar    1  UNL1       -0.0003
     36 C         139.7790  142.6891  165.0417 C.ar    1  UNL1        0.0092
     37 C         138.4974  142.2037  164.4318 C.ar    1  UNL1        0.1240
     38 N         137.9529  140.8564  164.8038 N.ar    1  UNL1       -0.2356
     39 N         137.7603  143.0656  163.4500 N.pl3   1  UNL1       -0.3184
     40 C         138.3049  144.4128  163.0782 C.3     1  UNL1        0.0885
     41 C         139.5864  144.8983  163.6880 C.3     1  UNL1        0.0260
     42 C         140.3235  144.0364  164.6698 C.3     1  UNL1        0.0309
     43 H         136.9192  142.7470  163.0498 H       1  UNL1        0.1482
@<TRIPOS>UNITY_ATOM_ATTR
23 1
charge -1
@<TRIPOS>BOND
     1     8     9    1
     2     9    10   ar
     3    10    11   ar
     4    11    12    1
     5    11    13   ar
     6    13     2    1
     7     2     3   ar
     8     3     4   ar
     9     4     1    1
    10     1    21    1
    11    21    22    1
    12    22    23   ar
    13    22    24   ar
    14     1    25    1
    15    25    26    1
    16    26    27    1
    17    27    28    1
    18    28    29    1
    19    29    31    1
    20    31    32    1
    21    32    33    1
    22    33    34   ar
    23    34    35   ar
    24    35    36   ar
    25    36    37   ar
    26    37    38   ar
    27    37    39    1
    28    39    40    1
    29    40    41    1
    30    41    42    1
    31    29    30    1
    32     4     5   ar
    33     5     6   ar
    34     6    15    1
    35    15    16    1
    36    16    17    1
    37    17    18    1
    38    18    19    1
    39    19    20    1
    40     6     7   ar
    41    13    14   ar
    42    14     9   ar
    43     7     2   ar
    44    30    26    1
    45    20    15    1
    46    38    33   ar
    47    42    36    1
    48    39    43    1
@<TRIPOS>MOLECULE
*****
 43 48 0 0 0
SMALL
GASTEIGER

@<TRIPOS>ATOM
      1 C         140.0339  142.3283  159.3181 C.3     1  UNL1        0.0439
      2 C         141.6992  139.3065  161.2792 C.ar    1  UNL1        0.0833
      3 C         140.9342  140.5667  161.0023 C.ar    1  UNL1        0.0150
      4 C         140.7990  141.0681  159.5950 C.ar    1  UNL1       -0.0181
      5 C         141.4287  140.3093  158.4647 C.ar    1  UNL1        0.0104
      6 C         142.1937  139.0491  158.7417 C.ar    1  UNL1        0.0492
      7 C         142.3289  138.5477  160.1490 C.ar    1  UNL1        0.0336
      8 C         143.6456  138.2787  166.0788 C.3     1  UNL1        0.0540
      9 C         142.7291  138.3327  164.8926 C.ar    1  UNL1        0.0805
     10 C         141.3559  137.7344  164.8114 C.ar    1  UNL1        0.0312
     11 C         140.8030  138.0264  163.4480 C.ar    1  UNL1        0.0621
     12 C         139.4552  137.6124  162.9358 C.3     1  UNL1        0.0522
     13 N         141.8344  138.8051  162.6865 N.ar    1  UNL1       -0.2340
     14 N         143.0248  138.9944  163.5793 N.ar    1  UNL1       -0.1698
     15 N         142.8235  138.2903  157.6114 N.pl3   1  UNL1       -0.3027
     16 C         143.5187  139.0298  156.5070 C.3     1  UNL1        0.1231
     17 C         144.1485  138.2710  155.3767 C.3     1  UNL1        0.1636
     18 O         144.0830  136.7726  155.3508 O.3     1  UNL1       -0.3501
     19 C         143.3878  136.0331  156.4551 C.3     1  UNL1        0.1636
     20 C         142.7580  136.7918  157.5855 C.3     1  UNL1        0.1231
     21 C         140.7193  143.4947  158.6702 C.3     1  UNL1        0.0474
     22 C         141.9736  144.0562  159.2714 C.2     1  UNL1        0.0507
     23 O         141.9099  144.8234  160.5589 O.co2   1  UNL1       -0.5492
     24 O         143.2915  143.8507  158.5852 O.co2   1  UNL1       -0.5492
     25 C         138.5836  142.4221  159.6891 C.3     1  UNL1        0.0768
     26 N         138.1772  142.4207  161.1330 N.3     1  UNL1       -0.2724
     27 C         137.6571  141.2420  161.9015 C.3     1  UNL1        0.0721
     28 C         137.3780  141.6906  163.3054 C.3     1  UNL1        0.0187
     29 C         137.7256  143.1464  163.4046 C.3     1  UNL1        0.0178
     30 C         138.2195  143.5976  162.0620 C.3     1  UNL1        0.0721
     31 C         137.6011  144.0009  164.6311 C.3     1  UNL1        0.0077
     32 C         138.8159  144.6631  165.2102 C.3     1  UNL1        0.0459
     33 C         140.1433  143.9658  165.1657 C.ar    1  UNL1        0.0603
     34 C         140.5042  142.9715  166.2292 C.ar    1  UNL1        0.0145
     35 C         141.8315  142.2742  166.1848 C.ar    1  UNL1       -0.0003
     36 C         142.7980  142.5711  165.0767 C.ar    1  UNL1        0.0092
     37 C         142.4371  143.5654  164.0131 C.ar    1  UNL1        0.1240
     38 N         141.1097  144.2627  164.0576 N.ar    1  UNL1       -0.2356
     39 N         143.4035  143.8623  162.9050 N.pl3   1  UNL1       -0.3184
     40 C         144.7308  143.1650  162.8606 C.3     1  UNL1        0.0885
     41 C         145.0916  142.1708  163.9241 C.3     1  UNL1        0.0260
     42 C         144.1252  141.8738  165.0322 C.3     1  UNL1        0.0309
     43 H         143.1666  144.5149  162.2070 H       1  UNL1        0.1482
@<TRIPOS>UNITY_ATOM_ATTR
23 1
charge -1
@<TRIPOS>BOND
     1     8     9    1
     2     9    10   ar
     3    10    11   ar
     4    11    12    1
     5    11    13   ar
     6    13     2    1
     7     2     3   ar
     8     3     4   ar
     9     4     1    1
    10     1    21    1
    11    21    22    1
    12    22    23   ar
    13    22    24   ar
    14     1    25    1
    15    25    26    1
    16    26    27    1
    17    27    28    1
    18    28    29    1
    19    29    31    1
    20    31    32    1
    21    32    33    1
    22    33    34   ar
    23    34    35   ar
    24    35    36   ar
    25    36    37   ar
    26    37    38   ar
    27    37    39    1
    28    39    40    1
    29    40    41    1
    30    41    42    1
    31    29    30    1
    32     4     5   ar
    33     5     6   ar
    34     6    15    1
    35    15    16    1
    36    16    17    1
    37    17    18    1
    38    18    19    1
    39    19    20    1
    40     6     7   ar
    41    13    14   ar
    42    14     9   ar
    43     7     2   ar
    44    30    26    1
    45    20    15    1
    46    38    33   ar
    47    42    36    1
    48    39    43    1
@<TRIPOS>MOLECULE
*****
 43 48 0 0 0
SMALL
GASTEIGER

@<TRIPOS>ATOM
      1 C         138.9333  139.8480  160.5397 C.3     1  UNL1        0.0439
      2 C         142.3147  138.5951  158.8823 C.ar    1  UNL1        0.0833
      3 C         140.8543  138.8653  159.0925 C.ar    1  UNL1        0.0150
      4 C         140.3938  139.5779  160.3295 C.ar    1  UNL1       -0.0181
      5 C         141.3937  140.0202  161.3564 C.ar    1  UNL1        0.0104
      6 C         142.8541  139.7500  161.1462 C.ar    1  UNL1        0.0492
      7 C         143.3146  139.0375  159.9091 C.ar    1  UNL1        0.0336
      8 C         143.5542  134.7742  155.4552 C.3     1  UNL1        0.0540
      9 C         143.3449  136.1263  156.0700 C.ar    1  UNL1        0.0805
     10 C         143.6226  137.4461  155.4132 C.ar    1  UNL1        0.0312
     11 C         143.2705  138.5314  156.3868 C.ar    1  UNL1        0.0621
     12 C         143.3922  140.0068  156.1445 C.3     1  UNL1        0.0522
     13 N         142.7752  137.8826  157.6452 N.ar    1  UNL1       -0.2340
     14 N         142.8212  136.3962  157.4495 N.ar    1  UNL1       -0.1698
     15 N         143.8540  140.1924  162.1730 N.pl3   1  UNL1       -0.3027
     16 C         144.1287  139.3329  163.3714 C.3     1  UNL1        0.1231
     17 C         145.1286  139.7753  164.3982 C.3     1  UNL1        0.1636
     18 O         145.8540  141.0771  164.2268 O.3     1  UNL1       -0.3501
     19 C         145.5793  141.9365  163.0285 C.3     1  UNL1        0.1636
     20 C         144.5794  141.4942  162.0016 C.3     1  UNL1        0.1231
     21 C         138.2964  141.0546  159.9163 C.3     1  UNL1        0.0474
     22 C         138.2935  142.3637  160.6485 C.2     1  UNL1        0.0507
     23 O         137.5927  142.4828  161.9694 O.co2   1  UNL1       -0.5492
     24 O         138.9914  143.5538  160.0598 O.co2   1  UNL1       -0.5492
     25 C         138.1097  138.9116  161.3733 C.3     1  UNL1        0.0768
     26 N         138.4963  138.6369  162.7963 N.3     1  UNL1       -0.2724
     27 C         139.3239  137.4823  163.2781 C.3     1  UNL1        0.0721
     28 C         139.4622  137.6005  164.7670 C.3     1  UNL1        0.0187
     29 C         138.7203  138.8281  165.2055 C.3     1  UNL1        0.0178
     30 C         138.1233  139.4687  163.9875 C.3     1  UNL1        0.0721
     31 C         138.5969  139.3275  166.6145 C.3     1  UNL1        0.0077
     32 C         139.6600  140.2146  167.1915 C.3     1  UNL1        0.0459
     33 C         140.3299  141.2418  166.3277 C.ar    1  UNL1        0.0603
     34 C         141.8268  141.2911  166.2450 C.ar    1  UNL1        0.0145
     35 C         142.4968  142.3183  165.3813 C.ar    1  UNL1       -0.0003
     36 C         141.6699  143.2962  164.6002 C.ar    1  UNL1        0.0092
     37 C         140.1730  143.2469  164.6829 C.ar    1  UNL1        0.1240
     38 N         139.5030  142.2196  165.5467 N.ar    1  UNL1       -0.2356
     39 N         139.3461  144.2247  163.9019 N.pl3   1  UNL1       -0.3184
     40 C         140.0161  145.2518  163.0382 C.3     1  UNL1        0.0885
     41 C         141.5130  145.3011  162.9555 C.3     1  UNL1        0.0260
     42 C         142.3399  144.3233  163.7365 C.3     1  UNL1        0.0309
     43 H         138.3636  144.1923  163.9562 H       1  UNL1        0.1482
@<TRIPOS>UNITY_ATOM_ATTR
23 1
charge -1
@<TRIPOS>BOND
     1     8     9    1
     2     9    10   ar
     3    10    11   ar
     4    11    12    1
     5    11    13   ar
     6    13     2    1
     7     2     3   ar
     8     3     4   ar
     9     4     1    1
    10     1    21    1
    11    21    22    1
    12    22    23   ar
    13    22    24   ar
    14     1    25    1
    15    25    26    1
    16    26    27    1
    17    27    28    1
    18    28    29    1
    19    29    31    1
    20    31    32    1
    21    32    33    1
    22    33    34   ar
    23    34    35   ar
    24    35    36   ar
    25    36    37   ar
    26    37    38   ar
    27    37    39    1
    28    39    40    1
    29    40    41    1
    30    41    42    1
    31    29    30    1
    32     4     5   ar
    33     5     6   ar
    34     6    15    1
    35    15    16    1
    36    16    17    1
    37    17    18    1
    38    18    19    1
    39    19    20    1
    40     6     7   ar
    41    13    14   ar
    42    14     9   ar
    43     7     2   ar
    44    30    26    1
    45    20    15    1
    46    38    33   ar
    47    42    36    1
    48    39    43    1
@<TRIPOS>MOLECULE
*****
 43 48 0 0 0
SMALL
GASTEIGER

@<TRIPOS>ATOM
      1 C         143.6494  139.6065  162.8881 C.3     1  UNL1        0.0439
      2 C         143.7510  141.6178  159.4683 C.ar    1  UNL1        0.0833
      3 C         144.0604  140.5945  160.5205 C.ar    1  UNL1        0.0150
      4 C         143.3400  140.6298  161.8358 C.ar    1  UNL1       -0.0181
      5 C         142.3103  141.6883  162.0988 C.ar    1  UNL1        0.0104
      6 C         142.0009  142.7116  161.0465 C.ar    1  UNL1        0.0492
      7 C         142.7213  142.6763  159.7312 C.ar    1  UNL1        0.0336
      8 C         147.0890  142.7565  155.5387 C.3     1  UNL1        0.0540
      9 C         146.0057  142.1059  156.3468 C.ar    1  UNL1        0.0805
     10 C         145.1540  140.9505  155.9113 C.ar    1  UNL1        0.0312
     11 C         144.2058  140.6270  157.0276 C.ar    1  UNL1        0.0621
     12 C         143.1731  139.5389  157.0200 C.3     1  UNL1        0.0522
     13 N         144.4714  141.5825  158.1530 N.ar    1  UNL1       -0.2340
     14 N         145.5837  142.4965  157.7323 N.ar    1  UNL1       -0.1698
     15 N         140.9712  143.7701  161.3095 N.pl3   1  UNL1       -0.3027
     16 C         139.9892  143.5992  162.4305 C.3     1  UNL1        0.1231
     17 C         138.9595  144.6577  162.6935 C.3     1  UNL1        0.1636
     18 O         138.9117  145.8872  161.8355 O.3     1  UNL1       -0.3501
     19 C         139.8936  146.0581  160.7146 C.3     1  UNL1        0.1636
     20 C         140.9234  144.9996  160.4515 C.3     1  UNL1        0.1231
     21 C         144.5509  139.9582  164.0342 C.3     1  UNL1        0.0474
     22 C         145.1981  141.3102  164.0918 C.2     1  UNL1        0.0507
     23 O         146.3483  141.6305  163.1837 O.co2   1  UNL1       -0.5492
     24 O         144.6952  142.3419  165.0576 O.co2   1  UNL1       -0.5492
     25 C         143.0573  138.2315  162.7941 C.3     1  UNL1        0.0768
     26 N         141.6239  138.0047  163.1734 N.3     1  UNL1       -0.2724
     27 C         140.4638  137.9209  162.2261 C.3     1  UNL1        0.0721
     28 C         139.2218  137.6862  163.0338 C.3     1  UNL1        0.0187
     29 C         139.6143  137.6250  164.4803 C.3     1  UNL1        0.0178
     30 C         141.0988  137.8218  164.5665 C.3     1  UNL1        0.0721
     31 C         138.6853  137.4055  165.6373 C.3     1  UNL1        0.0077
     32 C         137.9985  138.5740  166.2798 C.3     1  UNL1        0.0459
     33 C         138.8090  139.6543  166.9326 C.ar    1  UNL1        0.0603
     34 C         139.4262  140.7371  166.0978 C.ar    1  UNL1        0.0145
     35 C         140.2367  141.8173  166.7505 C.ar    1  UNL1       -0.0003
     36 C         140.4301  141.8149  168.2380 C.ar    1  UNL1        0.0092
     37 C         139.8129  140.7321  169.0728 C.ar    1  UNL1        0.1240
     38 N         139.0024  139.6519  168.4200 N.ar    1  UNL1       -0.2356
     39 N         140.0063  140.7297  170.5602 N.pl3   1  UNL1       -0.3184
     40 C         140.8168  141.8099  171.2129 C.3     1  UNL1        0.0885
     41 C         141.4340  142.8926  170.3782 C.3     1  UNL1        0.0260
     42 C         141.2406  142.8951  168.8908 C.3     1  UNL1        0.0309
     43 H         139.6012  140.0190  171.1081 H       1  UNL1        0.1482
@<TRIPOS>UNITY_ATOM_ATTR
23 1
charge -1
@<TRIPOS>BOND
     1     8     9    1
     2     9    10   ar
     3    10    11   ar
     4    11    12    1
     5    11    13   ar
     6    13     2    1
     7     2     3   ar
     8     3     4   ar
     9     4     1    1
    10     1    21    1
    11    21    22    1
    12    22    23   ar
    13    22    24   ar
    14     1    25    1
    15    25    26    1
    16    26    27    1
    17    27    28    1
    18    28    29    1
    19    29    31    1
    20    31    32    1
    21    32    33    1
    22    33    34   ar
    23    34    35   ar
    24    35    36   ar
    25    36    37   ar
    26    37    38   ar
    27    37    39    1
    28    39    40    1
    29    40    41    1
    30    41    42    1
    31    29    30    1
    32     4     5   ar
    33     5     6   ar
    34     6    15    1
    35    15    16    1
    36    16    17    1
    37    17    18    1
    38    18    19    1
    39    19    20    1
    40     6     7   ar
    41    13    14   ar
    42    14     9   ar
    43     7     2   ar
    44    30    26    1
    45    20    15    1
    46    38    33   ar
    47    42    36    1
    48    39    43    1
@<TRIPOS>MOLECULE
*****
 43 48 0 0 0
SMALL
GASTEIGER

@<TRIPOS>ATOM
      1 C         142.9824  139.1039  164.9903 C.3     1  UNL1        0.0439
      2 C         140.6396  142.3055  165.1018 C.ar    1  UNL1        0.0833
      3 C         141.4718  141.1759  164.5712 C.ar    1  UNL1        0.0150
      4 C         142.1501  140.2335  165.5209 C.ar    1  UNL1       -0.0181
      5 C         141.9961  140.4207  167.0012 C.ar    1  UNL1        0.0104
      6 C         141.1639  141.5503  167.5318 C.ar    1  UNL1        0.0492
      7 C         140.4856  142.4926  166.5821 C.ar    1  UNL1        0.0336
      8 C         139.7739  146.2643  161.7168 C.3     1  UNL1        0.0540
      9 C         139.5634  145.0675  162.5962 C.ar    1  UNL1        0.0805
     10 C         138.2719  144.3284  162.7851 C.ar    1  UNL1        0.0312
     11 C         138.5179  143.2038  163.7467 C.ar    1  UNL1        0.0621
     12 C         137.4991  142.2096  164.2200 C.3     1  UNL1        0.0522
     13 N         139.9614  143.2478  164.1521 N.ar    1  UNL1       -0.2340
     14 N         140.6076  144.3996  163.4411 N.ar    1  UNL1       -0.1698
     15 N         141.0099  141.7374  169.0121 N.pl3   1  UNL1       -0.3027
     16 C         140.0502  142.7608  169.5428 C.3     1  UNL1        0.1231
     17 C         139.8962  142.9480  171.0231 C.3     1  UNL1        0.1636
     18 O         140.7020  142.1118  171.9727 O.3     1  UNL1       -0.3501
     19 C         141.6616  141.0885  171.4419 C.3     1  UNL1        0.1636
     20 C         141.8157  140.9012  169.9616 C.3     1  UNL1        0.1231
     21 C         142.4383  137.7061  164.9925 C.3     1  UNL1        0.0474
     22 C         141.1409  137.4051  164.3025 C.2     1  UNL1        0.0507
     23 O         139.8411  137.6419  165.0130 O.co2   1  UNL1       -0.5492
     24 O         141.1431  136.8675  162.9022 O.co2   1  UNL1       -0.5492
     25 C         144.3586  139.3723  164.4575 C.3     1  UNL1        0.0768
     26 N         144.5894  140.5208  163.5206 N.3     1  UNL1       -0.2724
     27 C         145.1371  141.8666  163.8935 C.3     1  UNL1        0.0721
     28 C         145.1992  142.7026  162.6497 C.3     1  UNL1        0.0187
     29 C         144.6900  141.8736  161.5080 C.3     1  UNL1        0.0178
     30 C         144.3131  140.5252  162.0463 C.3     1  UNL1        0.0721
     31 C         144.5774  142.3155  160.0791 C.3     1  UNL1        0.0077
     32 C         143.5987  141.6445  159.1615 C.3     1  UNL1        0.0459
     33 C         142.1836  141.4226  159.6070 C.ar    1  UNL1        0.0603
     34 C         141.2364  142.5819  159.7010 C.ar    1  UNL1        0.0145
     35 C         139.8214  142.3601  160.1464 C.ar    1  UNL1       -0.0003
     36 C         139.3535  140.9789  160.4979 C.ar    1  UNL1        0.0092
     37 C         140.3007  139.8196  160.4039 C.ar    1  UNL1        0.1240
     38 N         141.7158  140.0415  159.9585 N.ar    1  UNL1       -0.2356
     39 N         139.8329  138.4384  160.7554 N.pl3   1  UNL1       -0.3184
     40 C         138.4179  138.2166  161.2009 C.3     1  UNL1        0.0885
     41 C         137.4707  139.3759  161.2948 C.3     1  UNL1        0.0260
     42 C         137.9385  140.7570  160.9433 C.3     1  UNL1        0.0309
     43 H         140.4546  137.6776  160.6937 H       1  UNL1        0.1482
@<TRIPOS>UNITY_ATOM_ATTR
23 1
charge -1
@<TRIPOS>BOND
     1     8     9    1
     2     9    10   ar
     3    10    11   ar
     4    11    12    1
     5    11    13   ar
     6    13     2    1
     7     2     3   ar
     8     3     4   ar
     9     4     1    1
    10     1    21    1
    11    21    22    1
    12    22    23   ar
    13    22    24   ar
    14     1    25    1
    15    25    26    1
    16    26    27    1
    17    27    28    1
    18    28    29    1
    19    29    31    1
    20    31    32    1
    21    32    33    1
    22    33    34   ar
    23    34    35   ar
    24    35    36   ar
    25    36    37   ar
    26    37    38   ar
    27    37    39    1
    28    39    40    1
    29    40    41    1
    30    41    42    1
    31    29    30    1
    32     4     5   ar
    33     5     6   ar
    34     6    15    1
    35    15    16    1
    36    16    17    1
    37    17    18    1
    38    18    19    1
    39    19    20    1
    40     6     7   ar
    41    13    14   ar
    42    14     9   ar
    43     7     2   ar
    44    30    26    1
    45    20    15    1
    46    38    33   ar
    47    42    36    1
    48    39    43    1
@<TRIPOS>MOLECULE
*****
 43 48 0 0 0
SMALL
GASTEIGER

@<TRIPOS>ATOM
      1 C         140.4821  139.5108  160.1086 C.3     1  UNL1        0.0439
      2 C         141.2717  143.2960  159.2142 C.ar    1  UNL1        0.0833
      3 C         140.7707  141.8869  159.0980 C.ar    1  UNL1        0.0150
      4 C         140.9832  140.9199  160.2249 C.ar    1  UNL1       -0.0181
      5 C         141.6968  141.3620  161.4680 C.ar    1  UNL1        0.0104
      6 C         142.1978  142.7711  161.5842 C.ar    1  UNL1        0.0492
      7 C         141.9853  143.7380  160.4573 C.ar    1  UNL1        0.0336
      8 C         139.3435  147.2342  156.2727 C.3     1  UNL1        0.0540
      9 C         140.1729  146.0731  156.7353 C.ar    1  UNL1        0.0805
     10 C         141.2914  145.4287  155.9713 C.ar    1  UNL1        0.0312
     11 C         141.8391  144.3099  156.8070 C.ar    1  UNL1        0.0621
     12 C         142.9686  143.3981  156.4286 C.3     1  UNL1        0.0522
     13 N         141.0592  144.2629  158.0874 N.ar    1  UNL1       -0.2340
     14 N         140.0294  145.3526  158.0431 N.ar    1  UNL1       -0.1698
     15 N         142.9114  143.2131  162.8273 N.pl3   1  UNL1       -0.3027
     16 C         143.3199  142.2021  163.8574 C.3     1  UNL1        0.1231
     17 C         144.0335  142.6442  165.1005 C.3     1  UNL1        0.1636
     18 O         144.3387  144.0974  165.3136 O.3     1  UNL1       -0.3501
     19 C         143.9302  145.1083  164.2836 C.3     1  UNL1        0.1636
     20 C         143.2166  144.6663  163.0404 C.3     1  UNL1        0.1231
     21 C         139.2403  139.2191  159.3194 C.3     1  UNL1        0.0474
     22 C         137.9668  139.9492  159.6280 C.2     1  UNL1        0.0507
     23 O         136.9821  140.2353  158.5331 O.co2   1  UNL1       -0.5492
     24 O         137.6779  140.3932  161.0313 O.co2   1  UNL1       -0.5492
     25 C         141.2229  138.3935  160.7815 C.3     1  UNL1        0.0768
     26 N         140.9630  138.0844  162.2262 N.3     1  UNL1       -0.2724
     27 C         142.0054  137.8473  163.2785 C.3     1  UNL1        0.0721
     28 C         141.3018  137.5745  164.5748 C.3     1  UNL1        0.0187
     29 C         139.8246  137.6430  164.3237 C.3     1  UNL1        0.0178
     30 C         139.6152  137.9581  162.8722 C.3     1  UNL1        0.0721
     31 C         138.7461  137.4332  165.3449 C.3     1  UNL1        0.0077
     32 C         138.2278  138.5960  166.1380 C.3     1  UNL1        0.0459
     33 C         138.6551  139.9912  165.7902 C.ar    1  UNL1        0.0603
     34 C         139.7355  140.6645  166.5836 C.ar    1  UNL1        0.0145
     35 C         140.1628  142.0596  166.2357 C.ar    1  UNL1       -0.0003
     36 C         139.5097  142.7815  165.0945 C.ar    1  UNL1        0.0092
     37 C         138.4293  142.1083  164.3011 C.ar    1  UNL1        0.1240
     38 N         138.0020  140.7131  164.6490 N.ar    1  UNL1       -0.2356
     39 N         137.7762  142.8301  163.1600 N.pl3   1  UNL1       -0.3184
     40 C         138.2035  144.2252  162.8121 C.3     1  UNL1        0.0885
     41 C         139.2839  144.8985  163.6055 C.3     1  UNL1        0.0260
     42 C         139.9370  144.1766  164.7467 C.3     1  UNL1        0.0309
     43 H         137.0671  142.3882  162.6392 H       1  UNL1        0.1482
@<TRIPOS>UNITY_ATOM_ATTR
23 1
charge -1
@<TRIPOS>BOND
     1     8     9    1
     2     9    10   ar
     3    10    11   ar
     4    11    12    1
     5    11    13   ar
     6    13     2    1
     7     2     3   ar
     8     3     4   ar
     9     4     1    1
    10     1    21    1
    11    21    22    1
    12    22    23   ar
    13    22    24   ar
    14     1    25    1
    15    25    26    1
    16    26    27    1
    17    27    28    1
    18    28    29    1
    19    29    31    1
    20    31    32    1
    21    32    33    1
    22    33    34   ar
    23    34    35   ar
    24    35    36   ar
    25    36    37   ar
    26    37    38   ar
    27    37    39    1
    28    39    40    1
    29    40    41    1
    30    41    42    1
    31    29    30    1
    32     4     5   ar
    33     5     6   ar
    34     6    15    1
    35    15    16    1
    36    16    17    1
    37    17    18    1
    38    18    19    1
    39    19    20    1
    40     6     7   ar
    41    13    14   ar
    42    14     9   ar
    43     7     2   ar
    44    30    26    1
    45    20    15    1
    46    38    33   ar
    47    42    36    1
    48    39    43    1
@<TRIPOS>MOLECULE
*****
 43 48 0 0 0
SMALL
GASTEIGER

@<TRIPOS>ATOM
      1 C         138.5437  140.1841  159.5691 C.3     1  UNL1        0.0439
      2 C         142.2997  139.4849  160.6435 C.ar    1  UNL1        0.0833
      3 C         140.8844  139.9805  160.6782 C.ar    1  UNL1        0.0150
      4 C         139.9591  139.6884  159.5343 C.ar    1  UNL1       -0.0181
      5 C         140.4491  138.9007  158.3556 C.ar    1  UNL1        0.0104
      6 C         141.8645  138.4051  158.3208 C.ar    1  UNL1        0.0492
      7 C         142.7897  138.6972  159.4648 C.ar    1  UNL1        0.0336
      8 C         146.1005  141.6494  163.6015 C.3     1  UNL1        0.0540
      9 C         144.9720  140.7719  163.1471 C.ar    1  UNL1        0.0805
     10 C         144.3256  139.6809  163.9484 C.ar    1  UNL1        0.0312
     11 C         143.2460  139.0661  163.1081 C.ar    1  UNL1        0.0621
     12 C         142.3452  137.9383  163.5167 C.3     1  UNL1        0.0522
     13 N         143.2250  139.7770  161.7874 N.ar    1  UNL1       -0.2340
     14 N         144.2917  140.8312  161.8114 N.ar    1  UNL1       -0.1698
     15 N         142.3545  137.6174  157.1421 N.pl3   1  UNL1       -0.3027
     16 C         142.9693  136.2647  157.3473 C.3     1  UNL1        0.1231
     17 C         143.4594  135.4770  156.1686 C.3     1  UNL1        0.1636
     18 O         143.3346  136.0420  154.7846 O.3     1  UNL1       -0.3501
     19 C         142.7198  137.3947  154.5795 C.3     1  UNL1        0.1636
     20 C         142.2297  138.1824  155.7582 C.3     1  UNL1        0.1231
     21 C         138.1159  141.2962  158.6581 C.3     1  UNL1        0.0474
     22 C         139.0063  142.4868  158.4584 C.2     1  UNL1        0.0507
     23 O         139.0461  143.5750  159.4902 O.co2   1  UNL1       -0.5492
     24 O         139.8568  142.5892  157.2271 O.co2   1  UNL1       -0.5492
     25 C         137.5562  139.5676  160.5151 C.3     1  UNL1        0.0768
     26 N         137.9856  139.1772  161.8982 N.3     1  UNL1       -0.2724
     27 C         138.4118  137.8070  162.3354 C.3     1  UNL1        0.0721
     28 C         138.7539  137.8715  163.7945 C.3     1  UNL1        0.0187
     29 C         138.5391  139.2815  164.2591 C.3     1  UNL1        0.0178
     30 C         138.0643  140.0884  163.0871 C.3     1  UNL1        0.0721
     31 C         138.7602  139.7944  165.6512 C.3     1  UNL1        0.0077
     32 C         140.1465  139.8401  166.2222 C.3     1  UNL1        0.0459
     33 C         141.0902  140.9324  165.8140 C.ar    1  UNL1        0.0603
     34 C         142.0804  141.4757  166.8010 C.ar    1  UNL1        0.0145
     35 C         143.0240  142.5679  166.3929 C.ar    1  UNL1       -0.0003
     36 C         142.9775  143.1168  164.9977 C.ar    1  UNL1        0.0092
     37 C         141.9872  142.5735  164.0107 C.ar    1  UNL1        0.1240
     38 N         141.0436  141.4813  164.4188 N.ar    1  UNL1       -0.2356
     39 N         141.9406  143.1224  162.6155 N.pl3   1  UNL1       -0.3184
     40 C         142.8843  144.2146  162.2074 C.3     1  UNL1        0.0885
     41 C         143.8745  144.7579  163.1945 C.3     1  UNL1        0.0260
     42 C         143.9211  144.2091  164.5896 C.3     1  UNL1        0.0309
     43 H         141.2907  142.7658  161.9677 H       1  UNL1        0.1482
@<TRIPOS>UNITY_ATOM_ATTR
23 1
charge -1
@<TRIPOS>BOND
     1     8     9    1
     2     9    10   ar
     3    10    11   ar
     4    11    12    1
     5    11    13   ar
     6    13     2    1
     7     2     3   ar
     8     3     4   ar
     9     4     1    1
    10     1    21    1
    11    21    22    1
    12    22    23   ar
    13    22    24   ar
    14     1    25    1
    15    25    26    1
    16    26    27    1
    17    27    28    1
    18    28    29    1
    19    29    31    1
    20    31    32    1
    21    32    33    1
    22    33    34   ar
    23    34    35   ar
    24    35    36   ar
    25    36    37   ar
    26    37    38   ar
    27    37    39    1
    28    39    40    1
    29    40    41    1
    30    41    42    1
    31    29    30    1
    32     4     5   ar
    33     5     6   ar
    34     6    15    1
    35    15    16    1
    36    16    17    1
    37    17    18    1
    38    18    19    1
    39    19    20    1
    40     6     7   ar
    41    13    14   ar
    42    14     9   ar
    43     7     2   ar
    44    30    26    1
    45    20    15    1
    46    38    33   ar
    47    42    36    1
    48    39    43    1
@<TRIPOS>MOLECULE
*****
 43 48 0 0 0
SMALL
GASTEIGER

@<TRIPOS>ATOM
      1 C         140.3570  139.0404  159.5127 C.3     1  UNL1        0.0439
      2 C         140.5478  142.8244  160.6940 C.ar    1  UNL1        0.0833
      3 C         140.7007  141.3322  160.6873 C.ar    1  UNL1        0.0150
      4 C         140.2041  140.5326  159.5194 C.ar    1  UNL1       -0.0181
      5 C         139.5546  141.2252  158.3581 C.ar    1  UNL1        0.0104
      6 C         139.4017  142.7174  158.3649 C.ar    1  UNL1        0.0492
      7 C         139.8983  143.5170  159.5328 C.ar    1  UNL1        0.0336
      8 C         143.7491  145.2429  164.1267 C.3     1  UNL1        0.0540
      9 C         142.5159  144.7356  163.4398 C.ar    1  UNL1        0.0805
     10 C         141.1013  144.9731  163.8787 C.ar    1  UNL1        0.0312
     11 C         140.1920  144.2861  162.9035 C.ar    1  UNL1        0.0621
     12 C         138.6931  144.2649  162.9600 C.3     1  UNL1        0.0522
     13 N         141.0445  143.6240  161.8620 N.ar    1  UNL1       -0.2340
     14 N         142.4807  143.9017  162.1934 N.ar    1  UNL1       -0.1698
     15 N         138.7522  143.4100  157.2037 N.pl3   1  UNL1       -0.3027
     16 C         137.4522  142.8988  156.6571 C.3     1  UNL1        0.1231
     17 C         136.8027  143.5914  155.4959 C.3     1  UNL1        0.1636
     18 O         137.4532  144.7952  154.8811 O.3     1  UNL1       -0.3501
     19 C         138.7532  145.3063  155.4276 C.3     1  UNL1        0.1636
     20 C         139.4028  144.6137  156.5889 C.3     1  UNL1        0.1231
     21 C         141.4281  138.3999  158.6805 C.3     1  UNL1        0.0474
     22 C         142.8293  138.3027  159.2069 C.2     1  UNL1        0.0507
     23 O         143.7236  139.5068  159.1860 O.co2   1  UNL1       -0.5492
     24 O         143.3363  137.0014  159.7542 O.co2   1  UNL1       -0.5492
     25 C         139.4388  138.1887  160.3383 C.3     1  UNL1        0.0768
     26 N         139.7194  137.9792  161.7968 N.3     1  UNL1       -0.2724
     27 C         141.0761  137.9139  162.4333 C.3     1  UNL1        0.0721
     28 C         140.8877  137.6925  163.9048 C.3     1  UNL1        0.0187
     29 C         139.4145  137.6210  164.1779 C.3     1  UNL1        0.0178
     30 C         138.6924  137.7982  162.8751 C.3     1  UNL1        0.0721
     31 C         138.7755  137.4095  165.5184 C.3     1  UNL1        0.0077
     32 C         138.0658  138.5427  166.1981 C.3     1  UNL1        0.0459
     33 C         138.8553  139.6296  166.8656 C.ar    1  UNL1        0.0603
     34 C         139.4990  140.7040  166.0402 C.ar    1  UNL1        0.0145
     35 C         140.2884  141.7908  166.7076 C.ar    1  UNL1       -0.0003
     36 C         140.4342  141.8033  168.2005 C.ar    1  UNL1        0.0092
     37 C         139.7906  140.7289  169.0259 C.ar    1  UNL1        0.1240
     38 N         139.0011  139.6420  168.3584 N.ar    1  UNL1       -0.2356
     39 N         139.9363  140.7413  170.5187 N.pl3   1  UNL1       -0.3184
     40 C         140.7258  141.8281  171.1861 C.3     1  UNL1        0.0885
     41 C         141.3695  142.9026  170.3607 C.3     1  UNL1        0.0260
     42 C         141.2237  142.8901  168.8679 C.3     1  UNL1        0.0309
     43 H         139.5139  140.0361  171.0604 H       1  UNL1        0.1482
@<TRIPOS>UNITY_ATOM_ATTR
23 1
charge -1
@<TRIPOS>BOND
     1     8     9    1
     2     9    10   ar
     3    10    11   ar
     4    11    12    1
     5    11    13   ar
     6    13     2    1
     7     2     3   ar
     8     3     4   ar
     9     4     1    1
    10     1    21    1
    11    21    22    1
    12    22    23   ar
    13    22    24   ar
    14     1    25    1
    15    25    26    1
    16    26    27    1
    17    27    28    1
    18    28    29    1
    19    29    31    1
    20    31    32    1
    21    32    33    1
    22    33    34   ar
    23    34    35   ar
    24    35    36   ar
    25    36    37   ar
    26    37    38   ar
    27    37    39    1
    28    39    40    1
    29    40    41    1
    30    41    42    1
    31    29    30    1
    32     4     5   ar
    33     5     6   ar
    34     6    15    1
    35    15    16    1
    36    16    17    1
    37    17    18    1
    38    18    19    1
    39    19    20    1
    40     6     7   ar
    41    13    14   ar
    42    14     9   ar
    43     7     2   ar
    44    30    26    1
    45    20    15    1
    46    38    33   ar
    47    42    36    1
    48    39    43    1
@<TRIPOS>MOLECULE
*****
 43 48 0 0 0
SMALL
GASTEIGER

@<TRIPOS>ATOM
      1 C         141.9702  139.0116  159.4843 C.3     1  UNL1        0.0439
      2 C         138.6208  140.9467  158.5968 C.ar    1  UNL1        0.0833
      3 C         139.8272  140.0657  158.4612 C.ar    1  UNL1        0.0150
      4 C         140.7637  139.8927  159.6200 C.ar    1  UNL1       -0.0181
      5 C         140.4939  140.6006  160.9146 C.ar    1  UNL1        0.0104
      6 C         139.2875  141.4817  161.0503 C.ar    1  UNL1        0.0492
      7 C         138.3509  141.6547  159.8914 C.ar    1  UNL1        0.0336
      8 C         134.4706  140.4299  155.3736 C.3     1  UNL1        0.0540
      9 C         135.7767  140.8822  155.9564 C.ar    1  UNL1        0.0805
     10 C         136.7096  141.8899  155.3529 C.ar    1  UNL1        0.0312
     11 C         137.8886  142.0366  156.2685 C.ar    1  UNL1        0.0621
     12 C         139.0654  142.9415  156.0527 C.3     1  UNL1        0.0522
     13 N         137.6843  141.1198  157.4379 N.ar    1  UNL1       -0.2340
     14 N         136.3791  140.4063  157.2451 N.ar    1  UNL1       -0.1698
     15 N         139.0176  142.1896  162.3448 N.pl3   1  UNL1       -0.3027
     16 C         138.0110  143.3006  162.3965 C.3     1  UNL1        0.1231
     17 C         137.7411  144.0085  163.6910 C.3     1  UNL1        0.1636
     18 O         138.4778  143.6056  164.9341 O.3     1  UNL1       -0.3501
     19 C         139.4844  142.4947  164.8824 C.3     1  UNL1        0.1636
     20 C         139.7543  141.7867  163.5879 C.3     1  UNL1        0.1231
     21 C         142.8403  139.1137  158.2668 C.3     1  UNL1        0.0474
     22 C         143.8091  140.2507  158.1304 C.2     1  UNL1        0.0507
     23 O         143.6599  141.4705  158.9908 O.co2   1  UNL1       -0.5492
     24 O         144.9271  140.1681  157.1338 O.co2   1  UNL1       -0.5492
     25 C         142.3065  138.0285  160.5662 C.3     1  UNL1        0.0768
     26 N         142.8828  138.5101  161.8646 N.3     1  UNL1       -0.2724
     27 C         142.3331  138.2288  163.2316 C.3     1  UNL1        0.0721
     28 C         143.2207  138.9025  164.2358 C.3     1  UNL1        0.0187
     29 C         144.3189  139.6001  163.4895 C.3     1  UNL1        0.0178
     30 C         144.1101  139.3577  162.0240 C.3     1  UNL1        0.0721
     31 C         145.4307  140.3998  164.1012 C.3     1  UNL1        0.0077
     32 C         145.6603  141.8178  163.6691 C.3     1  UNL1        0.0459
     33 C         144.4914  142.7177  163.3976 C.ar    1  UNL1        0.0603
     34 C         143.7938  143.4046  164.5341 C.ar    1  UNL1        0.0145
     35 C         142.6249  144.3045  164.2626 C.ar    1  UNL1       -0.0003
     36 C         142.1535  144.5177  162.8545 C.ar    1  UNL1        0.0092
     37 C         142.8512  143.8309  161.7180 C.ar    1  UNL1        0.1240
     38 N         144.0201  142.9309  161.9896 N.ar    1  UNL1       -0.2356
     39 N         142.3799  144.0440  160.3101 N.pl3   1  UNL1       -0.3184
     40 C         141.2110  144.9439  160.0386 C.3     1  UNL1        0.0885
     41 C         140.5134  145.6307  161.1751 C.3     1  UNL1        0.0260
     42 C         140.9847  145.4176  162.5830 C.3     1  UNL1        0.0309
     43 H         142.8378  143.5932  159.5642 H       1  UNL1        0.1482
@<TRIPOS>UNITY_ATOM_ATTR
23 1
charge -1
@<TRIPOS>BOND
     1     8     9    1
     2     9    10   ar
     3    10    11   ar
     4    11    12    1
     5    11    13   ar
     6    13     2    1
     7     2     3   ar
     8     3     4   ar
     9     4     1    1
    10     1    21    1
    11    21    22    1
    12    22    23   ar
    13    22    24   ar
    14     1    25    1
    15    25    26    1
    16    26    27    1
    17    27    28    1
    18    28    29    1
    19    29    31    1
    20    31    32    1
    21    32    33    1
    22    33    34   ar
    23    34    35   ar
    24    35    36   ar
    25    36    37   ar
    26    37    38   ar
    27    37    39    1
    28    39    40    1
    29    40    41    1
    30    41    42    1
    31    29    30    1
    32     4     5   ar
    33     5     6   ar
    34     6    15    1
    35    15    16    1
    36    16    17    1
    37    17    18    1
    38    18    19    1
    39    19    20    1
    40     6     7   ar
    41    13    14   ar
    42    14     9   ar
    43     7     2   ar
    44    30    26    1
    45    20    15    1
    46    38    33   ar
    47    42    36    1
    48    39    43    1
