@<TRIPOS>MOLECULE
*****
 34 38 0 0 0
SMALL
GASTEIGER

@<TRIPOS>ATOM
      1 C         139.6446  142.3543  161.6370 C.ar    1  UNL1        0.0329
      2 C         138.1501  142.4432  161.5455 C.ar    1  UNL1        0.1001
      3 N         137.3151  142.3369  162.7871 N.ar    1  UNL1       -0.2420
      4 C         137.9747  142.1417  164.1201 C.ar    1  UNL1        0.1078
      5 C         139.4692  142.0528  164.2116 C.ar    1  UNL1        0.1207
      6 C         140.3042  142.1592  162.9700 C.ar    1  UNL1        0.0583
      7 C         140.1288  141.8577  165.5446 C.2     1  UNL1        0.3780
      8 N         140.7323  140.5814  166.0512 N.2     1  UNL1       -0.0308
      9 C         141.2771  140.8394  167.4248 C.2     1  UNL1        0.2318
     10 C         141.9817  139.9525  168.4080 C.2     1  UNL1        0.0456
     11 C         142.4195  140.5014  169.7335 C.2     1  UNL1       -0.0219
     12 C         143.1241  139.6145  170.7169 C.3     1  UNL1        0.0308
     13 C         142.1527  141.9373  170.0757 C.2     1  UNL1       -0.0214
     14 C         141.4481  142.8242  169.0925 C.3     1  UNL1        0.1034
     15 C         141.0103  142.2753  167.7670 C.2     1  UNL1        0.2178
     16 N         140.3006  142.9046  166.6050 N.2     1  UNL1       -0.0346
     17 N         141.7988  142.0703  163.0614 N.pl3   1  UNL1       -0.3071
     18 C         142.6079  143.3028  163.3378 C.3     1  UNL1        0.0921
     19 C         144.1024  143.2140  163.4292 C.3     1  UNL1        0.0369
     20 C         144.7880  141.8927  163.2443 C.3     1  UNL1        0.0542
     21 N         146.2825  141.8039  163.3357 N.3     1  UNL1       -0.3221
     22 C         143.9789  140.6602  162.9680 C.3     1  UNL1        0.0369
     23 C         142.4843  140.7490  162.8765 C.3     1  UNL1        0.0921
     24 H         146.6670  142.7291  163.5272 H       1  UNL1        0.1188
     25 H         146.6571  141.4560  162.4531 H       1  UNL1        0.1188
     26 C         141.9041  143.8881  158.7573 C.ar    1  UNL1        0.1410
     27 C         142.1498  142.6733  157.9124 C.ar    1  UNL1        0.0665
     28 C         141.5604  141.3522  158.3089 C.ar    1  UNL1        0.1432
     29 F         141.8061  140.1374  157.4640 F       1  UNL1       -0.2041
     30 C         140.7254  141.2459  159.5505 C.ar    1  UNL1        0.0299
     31 C         140.4797  142.4606  160.3954 C.ar    1  UNL1        0.0079
     32 C         141.0690  143.7818  159.9988 C.ar    1  UNL1        0.0371
     33 C         141.9822  145.9239  157.1450 C.3     1  UNL1        0.2525
     34 O         142.4934  145.2092  158.3608 O.3     1  UNL1       -0.4714
@<TRIPOS>BOND
     1    33    34    1
     2    34    26    1
     3    26    27   ar
     4    27    28   ar
     5    28    29    1
     6    28    30   ar
     7    30    31   ar
     8    31     1    1
     9     1     2   ar
    10     2     3   ar
    11     3     4   ar
    12     4     5   ar
    13     5     7    1
    14     7     8    2
    15     8     9    1
    16     9    10    2
    17    10    11    1
    18    11    12    1
    19    11    13    2
    20    13    14    1
    21    14    15    1
    22    15    16    2
    23     5     6   ar
    24     6    17    1
    25    17    18    1
    26    18    19    1
    27    19    20    1
    28    20    21    1
    29    20    22    1
    30    22    23    1
    31    31    32   ar
    32    32    26   ar
    33     6     1   ar
    34    23    17    1
    35    16     7    1
    36    15     9    1
    37    21    24    1
    38    21    25    1
@<TRIPOS>MOLECULE
*****
 34 38 0 0 0
SMALL
GASTEIGER

@<TRIPOS>ATOM
      1 C         140.7290  138.7725  164.9648 C.ar    1  UNL1        0.0329
      2 C         141.1116  137.3523  164.6707 C.ar    1  UNL1        0.1001
      3 N         141.1357  136.8602  163.2539 N.ar    1  UNL1       -0.2420
      4 C         140.7773  137.7882  162.1313 C.ar    1  UNL1        0.1078
      5 C         140.3947  139.2084  162.4255 C.ar    1  UNL1        0.1207
      6 C         140.3705  139.7006  163.8422 C.ar    1  UNL1        0.0583
      7 C         140.0362  140.1365  161.3029 C.2     1  UNL1        0.3780
      8 N         138.8695  139.9853  160.3723 N.2     1  UNL1       -0.0308
      9 C         138.8938  141.1341  159.4081 C.2     1  UNL1        0.2318
     10 C         137.9925  141.5072  158.2686 C.2     1  UNL1        0.0456
     11 C         138.2729  142.7415  157.4637 C.2     1  UNL1       -0.0219
     12 C         137.3716  143.1147  156.3242 C.3     1  UNL1        0.0308
     13 C         139.4546  143.6026  157.7983 C.2     1  UNL1       -0.0214
     14 C         140.3559  143.2295  158.9378 C.3     1  UNL1        0.1034
     15 C         140.0755  141.9952  159.7427 C.2     1  UNL1        0.2178
     16 N         140.7815  141.3787  160.9137 N.2     1  UNL1       -0.0346
     17 N         139.9879  141.1209  164.1364 N.pl3   1  UNL1       -0.3071
     18 C         138.5406  141.5041  164.2277 C.3     1  UNL1        0.0921
     19 C         138.1580  142.9243  164.5219 C.3     1  UNL1        0.0369
     20 C         139.2227  143.9613  164.7248 C.3     1  UNL1        0.0542
     21 N         138.8400  145.3815  165.0190 N.3     1  UNL1       -0.3221
     22 C         140.6700  143.5781  164.6335 C.3     1  UNL1        0.0369
     23 C         141.0526  142.1578  164.3393 C.3     1  UNL1        0.0921
     24 H         137.8235  145.4615  165.0443 H       1  UNL1        0.1188
     25 H         139.2110  145.9915  164.2904 H       1  UNL1        0.1188
     26 C         141.9598  140.1434  168.4799 C.ar    1  UNL1        0.1410
     27 C         140.6566  140.2492  169.2151 C.ar    1  UNL1        0.0665
     28 C         139.3775  139.8628  168.5335 C.ar    1  UNL1        0.1432
     29 F         138.0743  139.9686  169.2686 F       1  UNL1       -0.2041
     30 C         139.4016  139.3705  167.1167 C.ar    1  UNL1        0.0299
     31 C         140.7048  139.2647  166.3816 C.ar    1  UNL1        0.0079
     32 C         141.9839  139.6511  167.0632 C.ar    1  UNL1        0.0371
     33 C         143.4339  141.9347  169.6498 C.3     1  UNL1        0.2525
     34 O         143.2389  140.5298  169.1615 O.3     1  UNL1       -0.4714
@<TRIPOS>BOND
     1    33    34    1
     2    34    26    1
     3    26    27   ar
     4    27    28   ar
     5    28    29    1
     6    28    30   ar
     7    30    31   ar
     8    31     1    1
     9     1     2   ar
    10     2     3   ar
    11     3     4   ar
    12     4     5   ar
    13     5     7    1
    14     7     8    2
    15     8     9    1
    16     9    10    2
    17    10    11    1
    18    11    12    1
    19    11    13    2
    20    13    14    1
    21    14    15    1
    22    15    16    2
    23     5     6   ar
    24     6    17    1
    25    17    18    1
    26    18    19    1
    27    19    20    1
    28    20    21    1
    29    20    22    1
    30    22    23    1
    31    31    32   ar
    32    32    26   ar
    33     6     1   ar
    34    23    17    1
    35    16     7    1
    36    15     9    1
    37    21    24    1
    38    21    25    1
@<TRIPOS>MOLECULE
*****
 34 38 0 0 0
SMALL
GASTEIGER

@<TRIPOS>ATOM
      1 C         142.0078  139.9354  166.9000 C.ar    1  UNL1        0.0329
      2 C         143.0536  138.8928  167.1630 C.ar    1  UNL1        0.1001
      3 N         143.7734  138.2467  166.0165 N.ar    1  UNL1       -0.2420
      4 C         143.4474  138.6433  164.6071 C.ar    1  UNL1        0.1078
      5 C         142.4016  139.6859  164.3441 C.ar    1  UNL1        0.1207
      6 C         141.6818  140.3320  165.4906 C.ar    1  UNL1        0.0583
      7 C         142.0757  140.0825  162.9347 C.2     1  UNL1        0.3780
      8 N         141.1113  139.3837  162.0228 N.2     1  UNL1       -0.0308
      9 C         141.0964  140.1168  160.7142 C.2     1  UNL1        0.2318
     10 C         140.3365  139.8843  159.4421 C.2     1  UNL1        0.0456
     11 C         140.5319  140.8037  158.2731 C.2     1  UNL1       -0.0219
     12 C         139.7719  140.5712  157.0008 C.3     1  UNL1        0.0308
     13 C         141.4871  141.9555  158.3763 C.2     1  UNL1       -0.0214
     14 C         142.2471  142.1880  159.6484 C.3     1  UNL1        0.1034
     15 C         142.0517  141.2687  160.8174 C.2     1  UNL1        0.2178
     16 N         142.6569  141.2474  162.1897 N.2     1  UNL1       -0.0346
     17 N         140.6360  141.3747  165.2277 N.pl3   1  UNL1       -0.3071
     18 C         139.2167  140.9646  164.9679 C.3     1  UNL1        0.0921
     19 C         138.1709  142.0072  164.7050 C.3     1  UNL1        0.0369
     20 C         138.5443  143.4600  164.7018 C.3     1  UNL1        0.0542
     21 N         137.4985  144.5026  164.4389 N.3     1  UNL1       -0.3221
     22 C         139.9636  143.8701  164.9615 C.3     1  UNL1        0.0369
     23 C         141.0094  142.8274  165.2245 C.3     1  UNL1        0.0921
     24 H         136.5979  144.0494  164.2843 H       1  UNL1        0.1188
     25 H         137.7550  145.0403  163.6109 H       1  UNL1        0.1188
     26 C         141.1568  142.4328  169.8647 C.ar    1  UNL1        0.1410
     27 C         139.8482  141.8738  170.3394 C.ar    1  UNL1        0.0665
     28 C         139.2595  140.6688  169.6677 C.ar    1  UNL1        0.1432
     29 F         137.9510  140.1099  170.1423 F       1  UNL1       -0.2041
     30 C         139.9794  140.0226  168.5212 C.ar    1  UNL1        0.0299
     31 C         141.2879  140.5816  168.0465 C.ar    1  UNL1        0.0079
     32 C         141.8766  141.7866  168.7183 C.ar    1  UNL1        0.0371
     33 C         143.1962  143.6501  170.9178 C.3     1  UNL1        0.2525
     34 O         141.7455  143.6378  170.5365 O.3     1  UNL1       -0.4714
@<TRIPOS>BOND
     1    33    34    1
     2    34    26    1
     3    26    27   ar
     4    27    28   ar
     5    28    29    1
     6    28    30   ar
     7    30    31   ar
     8    31     1    1
     9     1     2   ar
    10     2     3   ar
    11     3     4   ar
    12     4     5   ar
    13     5     7    1
    14     7     8    2
    15     8     9    1
    16     9    10    2
    17    10    11    1
    18    11    12    1
    19    11    13    2
    20    13    14    1
    21    14    15    1
    22    15    16    2
    23     5     6   ar
    24     6    17    1
    25    17    18    1
    26    18    19    1
    27    19    20    1
    28    20    21    1
    29    20    22    1
    30    22    23    1
    31    31    32   ar
    32    32    26   ar
    33     6     1   ar
    34    23    17    1
    35    16     7    1
    36    15     9    1
    37    21    24    1
    38    21    25    1
@<TRIPOS>MOLECULE
*****
 34 38 0 0 0
SMALL
GASTEIGER

@<TRIPOS>ATOM
      1 C         139.1029  141.6864  163.5446 C.ar    1  UNL1        0.0329
      2 C         137.8380  142.3507  163.0877 C.ar    1  UNL1        0.1001
      3 N         137.7215  142.8533  161.6793 N.ar    1  UNL1       -0.2420
      4 C         138.8698  142.6917  160.7278 C.ar    1  UNL1        0.1078
      5 C         140.1346  142.0274  161.1847 C.ar    1  UNL1        0.1207
      6 C         140.2512  141.5248  162.5932 C.ar    1  UNL1        0.0583
      7 C         141.2829  141.8658  160.2333 C.2     1  UNL1        0.3780
      8 N         142.4577  142.7895  160.1042 N.2     1  UNL1       -0.0308
      9 C         143.3589  142.2467  159.0350 C.2     1  UNL1        0.2318
     10 C         144.6622  142.7363  158.4769 C.2     1  UNL1        0.0456
     11 C         145.3478  141.9667  157.3870 C.2     1  UNL1       -0.0219
     12 C         146.6512  142.4563  156.8289 C.3     1  UNL1        0.0308
     13 C         144.7299  140.7076  156.8553 C.2     1  UNL1       -0.0214
     14 C         143.4266  140.2180  157.4134 C.3     1  UNL1        0.1034
     15 C         142.7411  140.9875  158.5032 C.2     1  UNL1        0.2178
     16 N         141.4580  140.7521  159.2438 N.2     1  UNL1       -0.0346
     17 N         141.5161  140.8605  163.0502 N.pl3   1  UNL1       -0.3071
     18 C         142.6567  141.6901  163.5608 C.3     1  UNL1        0.0921
     19 C         143.9215  141.0258  164.0178 C.3     1  UNL1        0.0369
     20 C         144.0458  139.5319  163.9642 C.3     1  UNL1        0.0542
     21 N         145.3106  138.8677  164.4212 N.3     1  UNL1       -0.3221
     22 C         142.9052  138.7023  163.4536 C.3     1  UNL1        0.0369
     23 C         141.6403  139.3666  162.9966 C.3     1  UNL1        0.0921
     24 H         145.9735  139.5771  164.7337 H       1  UNL1        0.1188
     25 H         145.7163  138.3403  163.6481 H       1  UNL1        0.1188
     26 C         140.1620  141.4353  167.3611 C.ar    1  UNL1        0.1410
     27 C         139.4527  140.1784  167.7701 C.ar    1  UNL1        0.0665
     28 C         138.6268  139.4242  166.7705 C.ar    1  UNL1        0.1432
     29 F         137.9175  138.1673  167.1794 F       1  UNL1       -0.2041
     30 C         138.5102  139.9269  165.3620 C.ar    1  UNL1        0.0299
     31 C         139.2195  141.1837  164.9531 C.ar    1  UNL1        0.0079
     32 C         140.0454  141.9379  165.9527 C.ar    1  UNL1        0.0371
     33 C         140.3851  143.3334  169.1211 C.3     1  UNL1        0.2525
     34 O         140.9879  142.1895  168.3606 O.3     1  UNL1       -0.4714
@<TRIPOS>BOND
     1    33    34    1
     2    34    26    1
     3    26    27   ar
     4    27    28   ar
     5    28    29    1
     6    28    30   ar
     7    30    31   ar
     8    31     1    1
     9     1     2   ar
    10     2     3   ar
    11     3     4   ar
    12     4     5   ar
    13     5     7    1
    14     7     8    2
    15     8     9    1
    16     9    10    2
    17    10    11    1
    18    11    12    1
    19    11    13    2
    20    13    14    1
    21    14    15    1
    22    15    16    2
    23     5     6   ar
    24     6    17    1
    25    17    18    1
    26    18    19    1
    27    19    20    1
    28    20    21    1
    29    20    22    1
    30    22    23    1
    31    31    32   ar
    32    32    26   ar
    33     6     1   ar
    34    23    17    1
    35    16     7    1
    36    15     9    1
    37    21    24    1
    38    21    25    1
@<TRIPOS>MOLECULE
*****
 34 38 0 0 0
SMALL
GASTEIGER

@<TRIPOS>ATOM
      1 C         142.6614  140.4755  164.9637 C.ar    1  UNL1        0.0329
      2 C         143.8871  139.6288  165.1388 C.ar    1  UNL1        0.1001
      3 N         144.7839  139.3564  163.9677 N.ar    1  UNL1       -0.2420
      4 C         144.4549  139.9305  162.6216 C.ar    1  UNL1        0.1078
      5 C         143.2292  140.7772  162.4465 C.ar    1  UNL1        0.1207
      6 C         142.3324  141.0497  163.6176 C.ar    1  UNL1        0.0583
      7 C         142.9002  141.3514  161.1004 C.2     1  UNL1        0.3780
      8 N         143.2799  142.7162  160.6073 N.2     1  UNL1       -0.0308
      9 C         142.7482  142.8699  159.2131 C.2     1  UNL1        0.2318
     10 C         142.8174  144.0021  158.2316 C.2     1  UNL1        0.0456
     11 C         142.1784  143.8644  156.8816 C.2     1  UNL1       -0.0219
     12 C         142.2477  144.9966  155.9000 C.3     1  UNL1        0.0308
     13 C         141.4702  142.5945  156.5130 C.2     1  UNL1       -0.0214
     14 C         141.4010  141.4624  157.4945 C.3     1  UNL1        0.1034
     15 C         142.0399  141.6001  158.8445 C.2     1  UNL1        0.2178
     16 N         142.1339  140.6616  160.0109 N.2     1  UNL1       -0.0346
     17 N         141.1066  141.8964  163.4426 N.pl3   1  UNL1       -0.3071
     18 C         139.8069  141.2615  163.0455 C.3     1  UNL1        0.0921
     19 C         138.5812  142.1081  162.8705 C.3     1  UNL1        0.0369
     20 C         138.6550  143.5898  163.0925 C.3     1  UNL1        0.0542
     21 N         137.4293  144.4364  162.9175 N.3     1  UNL1       -0.3221
     22 C         139.9547  144.2248  163.4896 C.3     1  UNL1        0.0369
     23 C         141.1805  143.3780  163.6646 C.3     1  UNL1        0.0921
     24 H         136.6430  143.8449  162.6487 H       1  UNL1        0.1188
     25 H         137.5968  145.1308  162.1894 H       1  UNL1        0.1188
     26 C         139.7115  140.1091  167.5932 C.ar    1  UNL1        0.1410
     27 C         139.9708  141.2931  168.4770 C.ar    1  UNL1        0.0665
     28 C         141.1269  142.2046  168.1897 C.ar    1  UNL1        0.1432
     29 F         141.3862  143.3885  169.0734 F       1  UNL1       -0.2041
     30 C         142.0238  141.9320  167.0186 C.ar    1  UNL1        0.0299
     31 C         141.7645  140.7481  166.1349 C.ar    1  UNL1        0.0079
     32 C         140.6084  139.8366  166.4222 C.ar    1  UNL1        0.0371
     33 C         137.8078  138.5551  166.7499 C.3     1  UNL1        0.2525
     34 O         138.5554  139.1976  167.8806 O.3     1  UNL1       -0.4714
@<TRIPOS>BOND
     1    33    34    1
     2    34    26    1
     3    26    27   ar
     4    27    28   ar
     5    28    29    1
     6    28    30   ar
     7    30    31   ar
     8    31     1    1
     9     1     2   ar
    10     2     3   ar
    11     3     4   ar
    12     4     5   ar
    13     5     7    1
    14     7     8    2
    15     8     9    1
    16     9    10    2
    17    10    11    1
    18    11    12    1
    19    11    13    2
    20    13    14    1
    21    14    15    1
    22    15    16    2
    23     5     6   ar
    24     6    17    1
    25    17    18    1
    26    18    19    1
    27    19    20    1
    28    20    21    1
    29    20    22    1
    30    22    23    1
    31    31    32   ar
    32    32    26   ar
    33     6     1   ar
    34    23    17    1
    35    16     7    1
    36    15     9    1
    37    21    24    1
    38    21    25    1
@<TRIPOS>MOLECULE
*****
 34 38 0 0 0
SMALL
GASTEIGER

@<TRIPOS>ATOM
      1 C         142.8197  140.8284  161.2632 C.ar    1  UNL1        0.0329
      2 C         144.0145  139.9241  161.1964 C.ar    1  UNL1        0.1001
      3 N         144.5202  139.2564  162.4408 N.ar    1  UNL1       -0.2420
      4 C         143.8310  139.4929  163.7519 C.ar    1  UNL1        0.1078
      5 C         142.6361  140.3973  163.8187 C.ar    1  UNL1        0.1207
      6 C         142.1305  141.0650  162.5744 C.ar    1  UNL1        0.0583
      7 C         141.9469  140.6338  165.1298 C.2     1  UNL1        0.3780
      8 N         142.1103  141.8397  166.0068 N.2     1  UNL1       -0.0308
      9 C         141.2377  141.6572  167.2132 C.2     1  UNL1        0.2318
     10 C         140.9922  142.5214  168.4143 C.2     1  UNL1        0.0456
     11 C         140.0440  142.0669  169.4841 C.2     1  UNL1       -0.0219
     12 C         139.7985  142.9311  170.6853 C.3     1  UNL1        0.0308
     13 C         139.3413  140.7483  169.3526 C.2     1  UNL1       -0.0214
     14 C         139.5868  139.8841  168.1514 C.3     1  UNL1        0.1034
     15 C         140.5350  140.3385  167.0817 C.2     1  UNL1        0.2178
     16 N         140.9733  139.7061  165.7941 N.2     1  UNL1       -0.0346
     17 N         140.9355  141.9694  162.6411 N.pl3   1  UNL1       -0.3071
     18 C         141.1146  143.4275  162.9442 C.3     1  UNL1        0.0921
     19 C         139.9197  144.3318  163.0109 C.3     1  UNL1        0.0369
     20 C         138.5458  143.7781  162.7746 C.3     1  UNL1        0.0542
     21 N         137.3510  144.6824  162.8414 N.3     1  UNL1       -0.3221
     22 C         138.3668  142.3200  162.4716 C.3     1  UNL1        0.0369
     23 C         139.5617  141.4156  162.4048 C.3     1  UNL1        0.0921
     24 H         137.6550  145.6321  163.0562 H       1  UNL1        0.1188
     25 H         136.7172  144.3552  163.5706 H       1  UNL1        0.1188
     26 C         142.2390  143.5628  158.4461 C.ar    1  UNL1        0.1410
     27 C         141.3025  142.8318  157.5302 C.ar    1  UNL1        0.0665
     28 C         140.8718  141.4330  157.8587 C.ar    1  UNL1        0.1432
     29 F         139.9354  140.7021  156.9429 F       1  UNL1       -0.2041
     30 C         141.3775  140.7652  159.1030 C.ar    1  UNL1        0.0299
     31 C         142.3139  141.4962  160.0189 C.ar    1  UNL1        0.0079
     32 C         142.7447  142.8950  159.6904 C.ar    1  UNL1        0.0371
     33 C         141.8716  145.7844  157.1501 C.3     1  UNL1        0.2525
     34 O         142.6697  144.9616  158.1177 O.3     1  UNL1       -0.4714
@<TRIPOS>BOND
     1    33    34    1
     2    34    26    1
     3    26    27   ar
     4    27    28   ar
     5    28    29    1
     6    28    30   ar
     7    30    31   ar
     8    31     1    1
     9     1     2   ar
    10     2     3   ar
    11     3     4   ar
    12     4     5   ar
    13     5     7    1
    14     7     8    2
    15     8     9    1
    16     9    10    2
    17    10    11    1
    18    11    12    1
    19    11    13    2
    20    13    14    1
    21    14    15    1
    22    15    16    2
    23     5     6   ar
    24     6    17    1
    25    17    18    1
    26    18    19    1
    27    19    20    1
    28    20    21    1
    29    20    22    1
    30    22    23    1
    31    31    32   ar
    32    32    26   ar
    33     6     1   ar
    34    23    17    1
    35    16     7    1
    36    15     9    1
    37    21    24    1
    38    21    25    1
@<TRIPOS>MOLECULE
*****
 34 38 0 0 0
SMALL
GASTEIGER

@<TRIPOS>ATOM
      1 C         140.0262  139.9036  160.8469 C.ar    1  UNL1        0.0329
      2 C         138.5973  139.4935  160.6467 C.ar    1  UNL1        0.1001
      3 N         137.6794  139.3724  161.8269 N.ar    1  UNL1       -0.2420
      4 C         138.1905  139.6614  163.2072 C.ar    1  UNL1        0.1078
      5 C         139.6193  140.0715  163.4074 C.ar    1  UNL1        0.1207
      6 C         140.5372  140.1926  162.2272 C.ar    1  UNL1        0.0583
      7 C         140.1304  140.3605  164.7877 C.2     1  UNL1        0.3780
      8 N         140.9609  139.4393  165.6312 N.2     1  UNL1       -0.0308
      9 C         141.2445  140.1309  166.9318 C.2     1  UNL1        0.2318
     10 C         142.0147  139.7068  168.1470 C.2     1  UNL1        0.0456
     11 C         142.1296  140.6314  169.3225 C.2     1  UNL1       -0.0219
     12 C         142.8998  140.2073  170.5378 C.3     1  UNL1        0.0308
     13 C         141.4742  141.9801  169.2828 C.2     1  UNL1       -0.0214
     14 C         140.7040  142.4042  168.0675 C.3     1  UNL1        0.1034
     15 C         140.5891  141.4795  166.8920 C.2     1  UNL1        0.2178
     16 N         139.9006  141.6214  165.5669 N.2     1  UNL1       -0.0346
     17 N         141.9662  140.6026  162.4273 N.pl3   1  UNL1       -0.3071
     18 C         142.3355  142.0565  162.4327 C.3     1  UNL1        0.0921
     19 C         143.7643  142.4666  162.6328 C.3     1  UNL1        0.0369
     20 C         144.8240  141.4228  162.8276 C.3     1  UNL1        0.0542
     21 N         146.2529  141.8329  163.0277 N.3     1  UNL1       -0.3221
     22 C         144.4547  139.9690  162.8223 C.3     1  UNL1        0.0369
     23 C         143.0257  139.5589  162.6221 C.3     1  UNL1        0.0921
     24 H         146.3212  142.8503  163.0029 H       1  UNL1        0.1188
     25 H         146.8279  141.4353  162.2850 H       1  UNL1        0.1188
     26 C         142.6037  138.9415  157.9867 C.ar    1  UNL1        0.1410
     27 C         142.7799  140.2668  157.3063 C.ar    1  UNL1        0.0665
     28 C         142.0382  141.4709  157.8062 C.ar    1  UNL1        0.1432
     29 F         142.2143  142.7961  157.1259 F       1  UNL1       -0.2041
     30 C         141.1202  141.3498  158.9864 C.ar    1  UNL1        0.0299
     31 C         140.9441  140.0247  159.6667 C.ar    1  UNL1        0.0079
     32 C         141.6858  138.8205  159.1668 C.ar    1  UNL1        0.0371
     33 C         142.5883  136.5653  156.9363 C.3     1  UNL1        0.2525
     34 O         143.3455  137.7374  157.4868 O.3     1  UNL1       -0.4714
@<TRIPOS>BOND
     1    33    34    1
     2    34    26    1
     3    26    27   ar
     4    27    28   ar
     5    28    29    1
     6    28    30   ar
     7    30    31   ar
     8    31     1    1
     9     1     2   ar
    10     2     3   ar
    11     3     4   ar
    12     4     5   ar
    13     5     7    1
    14     7     8    2
    15     8     9    1
    16     9    10    2
    17    10    11    1
    18    11    12    1
    19    11    13    2
    20    13    14    1
    21    14    15    1
    22    15    16    2
    23     5     6   ar
    24     6    17    1
    25    17    18    1
    26    18    19    1
    27    19    20    1
    28    20    21    1
    29    20    22    1
    30    22    23    1
    31    31    32   ar
    32    32    26   ar
    33     6     1   ar
    34    23    17    1
    35    16     7    1
    36    15     9    1
    37    21    24    1
    38    21    25    1
@<TRIPOS>MOLECULE
*****
 34 38 0 0 0
SMALL
GASTEIGER

@<TRIPOS>ATOM
      1 C         139.6202  142.3812  161.5439 C.ar    1  UNL1        0.0329
      2 C         138.1257  142.4704  161.4520 C.ar    1  UNL1        0.1001
      3 N         137.2901  142.3591  162.6927 N.ar    1  UNL1       -0.2420
      4 C         137.9490  142.1586  164.0252 C.ar    1  UNL1        0.1078
      5 C         139.4435  142.0694  164.1171 C.ar    1  UNL1        0.1207
      6 C         140.2791  142.1807  162.8764 C.ar    1  UNL1        0.0583
      7 C         140.1024  141.8689  165.4496 C.2     1  UNL1        0.3780
      8 N         140.6758  140.5822  165.9650 N.2     1  UNL1       -0.0308
      9 C         141.2314  140.8380  167.3347 C.2     1  UNL1        0.2318
     10 C         141.9170  139.9420  168.3231 C.2     1  UNL1        0.0456
     11 C         142.3726  140.4908  169.6426 C.2     1  UNL1       -0.0219
     12 C         143.0583  139.5947  170.6311 C.3     1  UNL1        0.0308
     13 C         142.1425  141.9356  169.9738 C.2     1  UNL1       -0.0214
     14 C         141.4569  142.8316  168.9854 C.3     1  UNL1        0.1034
     15 C         141.0013  142.2828  167.6658 C.2     1  UNL1        0.2178
     16 N         140.3036  142.9199  166.5008 N.2     1  UNL1       -0.0346
     17 N         141.7737  142.0915  162.9682 N.pl3   1  UNL1       -0.3071
     18 C         142.4567  140.7648  162.8154 C.3     1  UNL1        0.0921
     19 C         143.9511  140.6756  162.9072 C.3     1  UNL1        0.0369
     20 C         144.7628  141.9131  163.1519 C.3     1  UNL1        0.0542
     21 N         146.2573  141.8239  163.2437 N.3     1  UNL1       -0.3221
     22 C         144.0798  143.2399  163.3047 C.3     1  UNL1        0.0369
     23 C         142.5853  143.3291  163.2128 C.3     1  UNL1        0.0921
     24 H         146.5484  140.8545  163.1174 H       1  UNL1        0.1188
     25 H         146.5620  142.1539  164.1595 H       1  UNL1        0.1188
     26 C         141.6159  141.3760  158.2640 C.ar    1  UNL1        0.1410
     27 C         142.1273  142.7151  157.8218 C.ar    1  UNL1        0.0665
     28 C         141.8030  143.9428  158.6202 C.ar    1  UNL1        0.1432
     29 F         142.3143  145.2818  158.1780 F       1  UNL1       -0.2041
     30 C         140.9673  143.8315  159.8609 C.ar    1  UNL1        0.0299
     31 C         140.4559  142.4925  160.3031 C.ar    1  UNL1        0.0079
     32 C         140.7802  141.2648  159.5047 C.ar    1  UNL1        0.0371
     33 C         142.9942  139.1964  157.9484 C.3     1  UNL1        0.2525
     34 O         141.9402  140.1483  157.4656 O.3     1  UNL1       -0.4714
@<TRIPOS>BOND
     1    33    34    1
     2    34    26    1
     3    26    27   ar
     4    27    28   ar
     5    28    29    1
     6    28    30   ar
     7    30    31   ar
     8    31     1    1
     9     1     2   ar
    10     2     3   ar
    11     3     4   ar
    12     4     5   ar
    13     5     7    1
    14     7     8    2
    15     8     9    1
    16     9    10    2
    17    10    11    1
    18    11    12    1
    19    11    13    2
    20    13    14    1
    21    14    15    1
    22    15    16    2
    23     5     6   ar
    24     6    17    1
    25    17    18    1
    26    18    19    1
    27    19    20    1
    28    20    21    1
    29    20    22    1
    30    22    23    1
    31    31    32   ar
    32    32    26   ar
    33     6     1   ar
    34    23    17    1
    35    16     7    1
    36    15     9    1
    37    21    24    1
    38    21    25    1
@<TRIPOS>MOLECULE
*****
 34 38 0 0 0
SMALL
GASTEIGER

@<TRIPOS>ATOM
      1 C         142.0299  140.0562  166.9548 C.ar    1  UNL1        0.0329
      2 C         143.0875  139.0418  167.2743 C.ar    1  UNL1        0.1001
      3 N         143.8756  138.4060  166.1677 N.ar    1  UNL1       -0.2420
      4 C         143.6061  138.7847  164.7416 C.ar    1  UNL1        0.1078
      5 C         142.5484  139.7991  164.4220 C.ar    1  UNL1        0.1207
      6 C         141.7603  140.4349  165.5286 C.ar    1  UNL1        0.0583
      7 C         142.2788  140.1778  162.9958 C.2     1  UNL1        0.3780
      8 N         141.2708  139.5366  162.0888 N.2     1  UNL1       -0.0308
      9 C         141.3389  140.2267  160.7587 C.2     1  UNL1        0.2318
     10 C         140.5804  140.0208  159.4811 C.2     1  UNL1        0.0456
     11 C         140.8721  140.8825  158.2885 C.2     1  UNL1       -0.0219
     12 C         140.1135  140.6766  157.0109 C.3     1  UNL1        0.0308
     13 C         141.9223  141.9501  158.3735 C.2     1  UNL1       -0.0214
     14 C         142.6808  142.1560  159.6511 C.3     1  UNL1        0.1034
     15 C         142.3891  141.2943  160.8436 C.2     1  UNL1        0.2178
     16 N         142.9700  141.2641  162.2263 N.2     1  UNL1       -0.0346
     17 N         140.7025  141.4494  165.2091 N.pl3   1  UNL1       -0.3071
     18 C         141.0743  142.8928  165.0403 C.3     1  UNL1        0.0921
     19 C         140.0167  143.9072  164.7207 C.3     1  UNL1        0.0369
     20 C         138.5871  143.4784  164.5700 C.3     1  UNL1        0.0542
     21 N         137.5295  144.4929  164.2505 N.3     1  UNL1       -0.3221
     22 C         138.2154  142.0350  164.7388 C.3     1  UNL1        0.0369
     23 C         139.2731  141.0205  165.0583 C.3     1  UNL1        0.0921
     24 H         137.9565  145.4158  164.1714 H       1  UNL1        0.1188
     25 H         136.8325  144.5034  164.9951 H       1  UNL1        0.1188
     26 C         139.5663  140.4860  170.0363 C.ar    1  UNL1        0.1410
     27 C         139.6653  141.9637  170.2746 C.ar    1  UNL1        0.0665
     28 C         140.5526  142.8055  169.4062 C.ar    1  UNL1        0.1432
     29 F         140.6517  144.2831  169.6444 F       1  UNL1       -0.2041
     30 C         141.3408  142.1697  168.2996 C.ar    1  UNL1        0.0299
     31 C         141.2417  140.6921  168.0614 C.ar    1  UNL1        0.0079
     32 C         140.3544  139.8502  168.9298 C.ar    1  UNL1        0.0371
     33 C         137.2334  139.4630  170.5476 C.3     1  UNL1        0.2525
     34 O         138.6790  139.6441  170.9047 O.3     1  UNL1       -0.4714
@<TRIPOS>BOND
     1    33    34    1
     2    34    26    1
     3    26    27   ar
     4    27    28   ar
     5    28    29    1
     6    28    30   ar
     7    30    31   ar
     8    31     1    1
     9     1     2   ar
    10     2     3   ar
    11     3     4   ar
    12     4     5   ar
    13     5     7    1
    14     7     8    2
    15     8     9    1
    16     9    10    2
    17    10    11    1
    18    11    12    1
    19    11    13    2
    20    13    14    1
    21    14    15    1
    22    15    16    2
    23     5     6   ar
    24     6    17    1
    25    17    18    1
    26    18    19    1
    27    19    20    1
    28    20    21    1
    29    20    22    1
    30    22    23    1
    31    31    32   ar
    32    32    26   ar
    33     6     1   ar
    34    23    17    1
    35    16     7    1
    36    15     9    1
    37    21    24    1
    38    21    25    1
