@<TRIPOS>MOLECULE
*****
 34 37 0 0 0
SMALL
GASTEIGER

@<TRIPOS>ATOM
      1 C         138.7969  140.6654  162.0504 C.ar    1  UNL1        0.0468
      2 C         138.0101  139.8668  161.0538 C.ar    1  UNL1        0.0144
      3 C         137.8489  138.3870  161.2380 C.ar    1  UNL1        0.0044
      4 C         138.4745  137.7056  162.4189 C.ar    1  UNL1        0.0367
      5 C         139.2613  138.5042  163.4155 C.ar    1  UNL1        0.1358
      6 C         139.4224  139.9840  163.2312 C.ar    1  UNL1        0.0268
      7 C         140.2092  140.7827  164.2279 C.3     1  UNL1        0.0541
      8 C         140.8348  140.1014  165.4088 C.3     1  UNL1        0.1200
      9 C         140.6736  138.6214  165.5930 C.3     1  UNL1        0.2250
     10 O         139.8869  137.8229  164.5964 O.3     1  UNL1       -0.4739
     11 C         139.4417  146.5849  161.3134 C.3     1  UNL1        0.0897
     12 N         139.2805  145.1051  161.4977 N.3     1  UNL1       -0.2686
     13 C         138.3168  144.5770  162.5186 C.3     1  UNL1        0.0938
     14 C         138.1556  143.0970  162.7029 C.3     1  UNL1        0.1081
     15 N         138.9581  142.1453  161.8662 N.pl3   1  UNL1       -0.3048
     16 C         139.9218  142.6734  160.8452 C.3     1  UNL1        0.1081
     17 C         140.0830  144.1533  160.6610 C.3     1  UNL1        0.0938
     18 N         141.6216  140.8999  166.4054 N.am    1  UNL1       -0.2986
     19 C         141.0089  141.2658  167.7247 C.2     1  UNL1        0.2474
     20 O         139.6094  140.8331  168.0475 O.2     1  UNL1       -0.2701
     21 H         142.5401  141.1839  166.1936 H       1  UNL1        0.1498
     22 C         141.7957  142.0644  168.7214 C.ar    1  UNL1        0.0727
     23 C         143.2630  141.8074  168.8977 C.ar    1  UNL1        0.0109
     24 C         144.0498  142.6059  169.8943 C.ar    1  UNL1        0.0579
     25 C         143.3694  143.6614  170.7145 C.ar    1  UNL1        0.2249
     26 N         141.9021  143.9185  170.5381 N.ar    1  UNL1       -0.2100
     27 C         141.1153  143.1199  169.5416 C.ar    1  UNL1        0.1065
     28 O         144.1562  144.4600  171.7111 O.3     1  UNL1       -0.4599
     29 C         145.5742  144.8463  171.4109 C.3     1  UNL1        0.2159
     30 C         146.1194  146.1494  171.9156 C.3     1  UNL1        0.1505
     31 C         147.4494  146.1880  172.6082 C.3     1  UNL1        0.4014
     32 F         148.7793  146.2267  173.3008 F       1  UNL1       -0.1699
     33 F         146.9660  147.3139  173.4735 F       1  UNL1       -0.1699
     34 F         147.9327  145.0621  171.7429 F       1  UNL1       -0.1699
@<TRIPOS>BOND
     1    11    12    1
     2    12    13    1
     3    13    14    1
     4    14    15    1
     5    15     1    1
     6     1     2   ar
     7     2     3   ar
     8     3     4   ar
     9     4     5   ar
    10     5     6   ar
    11     6     7    1
    12     7     8    1
    13     8    18    1
    14    18    19   am
    15    19    20    2
    16    19    22    1
    17    22    23   ar
    18    23    24   ar
    19    24    25   ar
    20    25    28    1
    21    28    29    1
    22    29    30    1
    23    30    31    1
    24    31    32    1
    25    31    33    1
    26    31    34    1
    27    25    26   ar
    28    26    27   ar
    29     8     9    1
    30     9    10    1
    31    15    16    1
    32    16    17    1
    33    17    12    1
    34     6     1   ar
    35    27    22   ar
    36    10     5    1
    37    18    21    1
@<TRIPOS>MOLECULE
*****
 34 37 0 0 0
SMALL
GASTEIGER

@<TRIPOS>ATOM
      1 C         139.7843  142.1695  164.1714 C.ar    1  UNL1        0.0468
      2 C         139.0533  143.0576  165.1342 C.ar    1  UNL1        0.0144
      3 C         138.0493  144.0491  164.6257 C.ar    1  UNL1        0.0044
      4 C         137.7762  144.1527  163.1544 C.ar    1  UNL1        0.0367
      5 C         138.5072  143.2647  162.1916 C.ar    1  UNL1        0.1358
      6 C         139.5113  142.2731  162.7001 C.ar    1  UNL1        0.0268
      7 C         140.2423  141.3850  161.7373 C.3     1  UNL1        0.0541
      8 C         139.9693  141.4886  160.2660 C.3     1  UNL1        0.1200
      9 C         138.9652  142.4802  159.7575 C.3     1  UNL1        0.2250
     10 O         138.2342  143.3682  160.7203 O.3     1  UNL1       -0.4739
     11 C         143.8007  138.2031  166.2053 C.3     1  UNL1        0.0897
     12 N         142.7966  139.1947  165.6969 N.3     1  UNL1       -0.2686
     13 C         141.3704  138.7787  165.4895 C.3     1  UNL1        0.0938
     14 C         140.3663  139.7704  164.9810 C.3     1  UNL1        0.1081
     15 N         140.7884  141.1779  164.6799 N.pl3   1  UNL1       -0.3048
     16 C         142.2146  141.5938  164.8873 C.3     1  UNL1        0.1081
     17 C         143.2187  140.6023  165.3957 C.3     1  UNL1        0.0938
     18 N         140.7003  140.6005  159.3032 N.am    1  UNL1       -0.2986
     19 C         140.2663  139.1766  159.1186 C.2     1  UNL1        0.2474
     20 O         139.1013  138.6407  159.8968 O.2     1  UNL1       -0.2701
     21 H         141.4649  140.9523  158.7925 H       1  UNL1        0.1498
     22 C         140.9973  138.2886  158.1558 C.ar    1  UNL1        0.0727
     23 C         140.2481  137.5994  157.0541 C.ar    1  UNL1        0.0109
     24 C         140.9791  136.7114  156.0913 C.ar    1  UNL1        0.0579
     25 C         142.4593  136.5126  156.2301 C.ar    1  UNL1        0.2249
     26 N         143.2086  137.2017  157.3318 N.ar    1  UNL1       -0.2100
     27 C         142.4776  138.0897  158.2946 C.ar    1  UNL1        0.1065
     28 O         143.1904  135.6245  155.2672 O.3     1  UNL1       -0.4599
     29 C         143.2073  134.1400  155.4809 C.3     1  UNL1        0.2159
     30 C         143.0662  133.5798  156.8652 C.3     1  UNL1        0.1505
     31 C         144.2889  133.2478  157.6682 C.3     1  UNL1        0.4014
     32 F         145.5117  132.9158  158.4712 F       1  UNL1       -0.1699
     33 F         144.7620  132.3394  156.5723 F       1  UNL1       -0.1699
     34 F         143.8159  134.1563  158.7641 F       1  UNL1       -0.1699
@<TRIPOS>BOND
     1    11    12    1
     2    12    13    1
     3    13    14    1
     4    14    15    1
     5    15     1    1
     6     1     2   ar
     7     2     3   ar
     8     3     4   ar
     9     4     5   ar
    10     5     6   ar
    11     6     7    1
    12     7     8    1
    13     8    18    1
    14    18    19   am
    15    19    20    2
    16    19    22    1
    17    22    23   ar
    18    23    24   ar
    19    24    25   ar
    20    25    28    1
    21    28    29    1
    22    29    30    1
    23    30    31    1
    24    31    32    1
    25    31    33    1
    26    31    34    1
    27    25    26   ar
    28    26    27   ar
    29     8     9    1
    30     9    10    1
    31    15    16    1
    32    16    17    1
    33    17    12    1
    34     6     1   ar
    35    27    22   ar
    36    10     5    1
    37    18    21    1
@<TRIPOS>MOLECULE
*****
 34 37 0 0 0
SMALL
GASTEIGER

@<TRIPOS>ATOM
      1 C         139.8522  142.3489  164.3965 C.ar    1  UNL1        0.0468
      2 C         139.4604  143.5262  165.2393 C.ar    1  UNL1        0.0144
      3 C         138.5014  144.5470  164.7024 C.ar    1  UNL1        0.0044
      4 C         137.9342  144.3904  163.3227 C.ar    1  UNL1        0.0367
      5 C         138.3260  143.2131  162.4798 C.ar    1  UNL1        0.1358
      6 C         139.2850  142.1924  163.0167 C.ar    1  UNL1        0.0268
      7 C         139.6768  141.0150  162.1739 C.3     1  UNL1        0.0541
      8 C         139.1096  140.8584  160.7941 C.3     1  UNL1        0.1200
      9 C         138.1505  141.8792  160.2572 C.3     1  UNL1        0.2250
     10 O         137.7587  143.0565  161.1001 O.3     1  UNL1       -0.4739
     11 C         143.6883  138.2657  166.5441 C.3     1  UNL1        0.0897
     12 N         142.7293  139.2865  166.0072 N.3     1  UNL1       -0.2686
     13 C         143.2461  140.4870  165.2711 C.3     1  UNL1        0.0938
     14 C         142.2871  141.5078  164.7342 C.3     1  UNL1        0.1081
     15 N         140.8113  141.3281  164.9334 N.pl3   1  UNL1       -0.3048
     16 C         140.2945  140.1277  165.6695 C.3     1  UNL1        0.1081
     17 C         141.2535  139.1069  166.2064 C.3     1  UNL1        0.0938
     18 N         139.5014  139.6811  159.9513 N.am    1  UNL1       -0.2986
     19 C         140.6475  139.7949  158.9904 C.2     1  UNL1        0.2474
     20 O         141.4019  141.0860  158.8723 O.2     1  UNL1       -0.2701
     21 H         139.0063  138.8337  160.0288 H       1  UNL1        0.1498
     22 C         141.0393  138.6175  158.1475 C.ar    1  UNL1        0.0727
     23 C         142.4297  138.0615  158.2357 C.ar    1  UNL1        0.0109
     24 C         142.8215  136.8842  157.3929 C.ar    1  UNL1        0.0579
     25 C         141.8229  136.2629  156.4619 C.ar    1  UNL1        0.2249
     26 N         140.4326  136.8189  156.3737 N.ar    1  UNL1       -0.2100
     27 C         140.0408  137.9962  157.2165 C.ar    1  UNL1        0.1065
     28 O         142.2147  135.0855  155.6190 O.3     1  UNL1       -0.4599
     29 C         142.6311  133.8010  156.2722 C.3     1  UNL1        0.2159
     30 C         143.9919  133.2299  156.0039 C.3     1  UNL1        0.1505
     31 C         144.7469  132.5425  157.1028 C.3     1  UNL1        0.4014
     32 F         145.5018  131.8551  158.2017 F       1  UNL1       -0.1699
     33 F         145.2245  131.5078  156.1275 F       1  UNL1       -0.1699
     34 F         144.2692  133.5772  158.0781 F       1  UNL1       -0.1699
@<TRIPOS>BOND
     1    11    12    1
     2    12    13    1
     3    13    14    1
     4    14    15    1
     5    15     1    1
     6     1     2   ar
     7     2     3   ar
     8     3     4   ar
     9     4     5   ar
    10     5     6   ar
    11     6     7    1
    12     7     8    1
    13     8    18    1
    14    18    19   am
    15    19    20    2
    16    19    22    1
    17    22    23   ar
    18    23    24   ar
    19    24    25   ar
    20    25    28    1
    21    28    29    1
    22    29    30    1
    23    30    31    1
    24    31    32    1
    25    31    33    1
    26    31    34    1
    27    25    26   ar
    28    26    27   ar
    29     8     9    1
    30     9    10    1
    31    15    16    1
    32    16    17    1
    33    17    12    1
    34     6     1   ar
    35    27    22   ar
    36    10     5    1
    37    18    21    1
@<TRIPOS>MOLECULE
*****
 34 37 0 0 0
SMALL
GASTEIGER

@<TRIPOS>ATOM
      1 C         140.8151  143.1320  161.0075 C.ar    1  UNL1        0.0468
      2 C         140.5435  144.1980  159.9879 C.ar    1  UNL1        0.0144
      3 C         140.0356  145.5404  160.4235 C.ar    1  UNL1        0.0044
      4 C         139.7992  145.8168  161.8787 C.ar    1  UNL1        0.0367
      5 C         140.0708  144.7507  162.8984 C.ar    1  UNL1        0.1358
      6 C         140.5788  143.4083  162.4627 C.ar    1  UNL1        0.0268
      7 C         140.8504  142.3422  163.4824 C.3     1  UNL1        0.0541
      8 C         140.6140  142.6185  164.9376 C.3     1  UNL1        0.1200
      9 C         140.1060  143.9610  165.3732 C.3     1  UNL1        0.2250
     10 O         139.8344  145.0271  164.3536 O.3     1  UNL1       -0.4739
     11 C         142.8470  137.7620  159.2651 C.3     1  UNL1        0.0897
     12 N         142.3391  139.1045  159.7007 N.3     1  UNL1       -0.2686
     13 C         143.3055  140.2160  159.9848 C.3     1  UNL1        0.0938
     14 C         142.7975  141.5585  160.4204 C.3     1  UNL1        0.1081
     15 N         141.3232  141.7894  160.5719 N.pl3   1  UNL1       -0.3048
     16 C         140.3568  140.6780  160.2878 C.3     1  UNL1        0.1081
     17 C         140.8647  139.3355  159.8522 C.3     1  UNL1        0.0938
     18 N         140.8857  141.5524  165.9573 N.am    1  UNL1       -0.2986
     19 C         142.2346  141.4623  166.6070 C.2     1  UNL1        0.2474
     20 O         143.3120  142.4382  166.2371 O.2     1  UNL1       -0.2701
     21 H         140.1785  140.9119  166.2001 H       1  UNL1        0.1498
     22 C         142.5062  140.3961  167.6267 C.ar    1  UNL1        0.0727
     23 C         142.1531  140.6276  169.0660 C.ar    1  UNL1        0.0109
     24 C         142.4246  139.5616  170.0857 C.ar    1  UNL1        0.0579
     25 C         143.0493  138.2640  169.6660 C.ar    1  UNL1        0.2249
     26 N         143.4024  138.0326  168.2267 N.ar    1  UNL1       -0.2100
     27 C         143.1309  139.0986  167.2070 C.ar    1  UNL1        0.1065
     28 O         143.3209  137.1979  170.6857 O.3     1  UNL1       -0.4599
     29 C         144.6233  136.4542  170.6645 C.3     1  UNL1        0.2159
     30 C         144.9131  135.4191  171.7107 C.3     1  UNL1        0.1505
     31 C         146.1027  135.5752  172.6109 C.3     1  UNL1        0.4014
     32 F         147.2924  135.7313  173.5111 F       1  UNL1       -0.1699
     33 F         146.0392  134.1150  172.9482 F       1  UNL1       -0.1699
     34 F         146.1663  137.0354  172.2737 F       1  UNL1       -0.1699
@<TRIPOS>BOND
     1    11    12    1
     2    12    13    1
     3    13    14    1
     4    14    15    1
     5    15     1    1
     6     1     2   ar
     7     2     3   ar
     8     3     4   ar
     9     4     5   ar
    10     5     6   ar
    11     6     7    1
    12     7     8    1
    13     8    18    1
    14    18    19   am
    15    19    20    2
    16    19    22    1
    17    22    23   ar
    18    23    24   ar
    19    24    25   ar
    20    25    28    1
    21    28    29    1
    22    29    30    1
    23    30    31    1
    24    31    32    1
    25    31    33    1
    26    31    34    1
    27    25    26   ar
    28    26    27   ar
    29     8     9    1
    30     9    10    1
    31    15    16    1
    32    16    17    1
    33    17    12    1
    34     6     1   ar
    35    27    22   ar
    36    10     5    1
    37    18    21    1
@<TRIPOS>MOLECULE
*****
 34 37 0 0 0
SMALL
GASTEIGER

@<TRIPOS>ATOM
      1 C         140.2530  142.3756  163.7336 C.ar    1  UNL1        0.0468
      2 C         139.6026  143.3587  164.6613 C.ar    1  UNL1        0.0144
      3 C         138.1136  143.5383  164.6396 C.ar    1  UNL1        0.0044
      4 C         137.2749  142.7349  163.6903 C.ar    1  UNL1        0.0367
      5 C         137.9253  141.7519  162.7626 C.ar    1  UNL1        0.1358
      6 C         139.4143  141.5723  162.7843 C.ar    1  UNL1        0.0268
      7 C         140.0647  140.5892  161.8565 C.3     1  UNL1        0.0541
      8 C         139.2260  139.7858  160.9072 C.3     1  UNL1        0.1200
      9 C         137.7370  139.9655  160.8857 C.3     1  UNL1        0.2250
     10 O         137.0866  140.9485  161.8133 O.3     1  UNL1       -0.4739
     11 C         146.2092  141.6569  163.8200 C.3     1  UNL1        0.0897
     12 N         144.7202  141.8366  163.7984 N.3     1  UNL1       -0.2686
     13 C         144.1033  142.8790  162.9136 C.3     1  UNL1        0.0938
     14 C         142.6142  143.0586  162.8920 C.3     1  UNL1        0.1081
     15 N         141.7421  142.1960  163.7552 N.pl3   1  UNL1       -0.3048
     16 C         142.3589  141.1536  164.6400 C.3     1  UNL1        0.1081
     17 C         143.8480  140.9739  164.6616 C.3     1  UNL1        0.0938
     18 N         139.8764  138.8027  159.9796 N.am    1  UNL1       -0.2986
     19 C         140.5131  139.2796  158.7079 C.2     1  UNL1        0.2474
     20 O         140.4996  140.7396  158.3639 O.2     1  UNL1       -0.2701
     21 H         139.8853  137.8445  160.2053 H       1  UNL1        0.1498
     22 C         141.1635  138.2965  157.7802 C.ar    1  UNL1        0.0727
     23 C         140.3207  137.4563  156.8671 C.ar    1  UNL1        0.0109
     24 C         140.9710  136.4732  155.9395 C.ar    1  UNL1        0.0579
     25 C         142.4641  136.3304  155.9248 C.ar    1  UNL1        0.2249
     26 N         143.3069  137.1706  156.8379 N.ar    1  UNL1       -0.2100
     27 C         142.6566  138.1537  157.7656 C.ar    1  UNL1        0.1065
     28 O         143.1145  135.3472  154.9971 O.3     1  UNL1       -0.4599
     29 C         143.2197  133.9031  155.3887 C.3     1  UNL1        0.2159
     30 C         143.1147  133.5077  156.8318 C.3     1  UNL1        0.1505
     31 C         144.3513  133.1583  157.6055 C.3     1  UNL1        0.4014
     32 F         145.5880  132.8089  158.3793 F       1  UNL1       -0.1699
     33 F         144.8097  132.2822  156.4775 F       1  UNL1       -0.1699
     34 F         143.8930  134.0343  158.7336 F       1  UNL1       -0.1699
@<TRIPOS>BOND
     1    11    12    1
     2    12    13    1
     3    13    14    1
     4    14    15    1
     5    15     1    1
     6     1     2   ar
     7     2     3   ar
     8     3     4   ar
     9     4     5   ar
    10     5     6   ar
    11     6     7    1
    12     7     8    1
    13     8    18    1
    14    18    19   am
    15    19    20    2
    16    19    22    1
    17    22    23   ar
    18    23    24   ar
    19    24    25   ar
    20    25    28    1
    21    28    29    1
    22    29    30    1
    23    30    31    1
    24    31    32    1
    25    31    33    1
    26    31    34    1
    27    25    26   ar
    28    26    27   ar
    29     8     9    1
    30     9    10    1
    31    15    16    1
    32    16    17    1
    33    17    12    1
    34     6     1   ar
    35    27    22   ar
    36    10     5    1
    37    18    21    1
@<TRIPOS>MOLECULE
*****
 34 37 0 0 0
SMALL
GASTEIGER

@<TRIPOS>ATOM
      1 C         140.8638  142.3240  165.8243 C.ar    1  UNL1        0.0468
      2 C         140.7020  142.6485  167.2798 C.ar    1  UNL1        0.0144
      3 C         141.0108  141.6112  168.3183 C.ar    1  UNL1        0.0044
      4 C         141.4813  140.2493  167.9013 C.ar    1  UNL1        0.0367
      5 C         141.6432  139.9248  166.4458 C.ar    1  UNL1        0.1358
      6 C         141.3344  140.9621  165.4073 C.ar    1  UNL1        0.0268
      7 C         141.4962  140.6376  163.9518 C.3     1  UNL1        0.0541
      8 C         141.9668  139.2757  163.5348 C.3     1  UNL1        0.1200
      9 C         142.2756  138.2384  164.5734 C.3     1  UNL1        0.2250
     10 O         142.1138  138.5629  166.0289 O.3     1  UNL1       -0.4739
     11 C         139.6286  146.4733  161.6700 C.3     1  UNL1        0.0897
     12 N         139.9374  145.4360  162.7085 N.3     1  UNL1       -0.2686
     13 C         141.3421  145.2693  163.2076 C.3     1  UNL1        0.0938
     14 C         141.6509  144.2319  164.2462 C.3     1  UNL1        0.1081
     15 N         140.5550  143.3613  164.7857 N.pl3   1  UNL1       -0.3048
     16 C         139.1503  143.5280  164.2866 C.3     1  UNL1        0.1081
     17 C         138.8415  144.5653  163.2481 C.3     1  UNL1        0.0938
     18 N         142.1286  138.9512  162.0793 N.am    1  UNL1       -0.2986
     19 C         140.9192  138.7049  161.2268 C.2     1  UNL1        0.2474
     20 O         139.5480  138.7832  161.8298 O.2     1  UNL1       -0.2701
     21 H         143.0286  138.8998  161.6835 H       1  UNL1        0.1498
     22 C         141.0811  138.3804  159.7713 C.ar    1  UNL1        0.0727
     23 C         142.4338  138.0277  159.2274 C.ar    1  UNL1        0.0109
     24 C         142.5958  137.7032  157.7720 C.ar    1  UNL1        0.0579
     25 C         141.4049  137.7313  156.8604 C.ar    1  UNL1        0.2249
     26 N         140.0522  138.0839  157.4042 N.ar    1  UNL1       -0.2100
     27 C         139.8903  138.4085  158.8597 C.ar    1  UNL1        0.1065
     28 O         141.5668  137.4068  155.4048 O.3     1  UNL1       -0.4599
     29 C         141.4903  135.9823  154.9410 C.3     1  UNL1        0.2159
     30 C         142.6742  135.0759  155.1039 C.3     1  UNL1        0.1505
     31 C         142.7707  134.1758  156.2999 C.3     1  UNL1        0.4014
     32 F         142.8673  133.2756  157.4960 F       1  UNL1       -0.1699
     33 F         141.4772  133.5225  155.9127 F       1  UNL1       -0.1699
     34 F         144.0643  134.8290  156.6872 F       1  UNL1       -0.1699
@<TRIPOS>BOND
     1    11    12    1
     2    12    13    1
     3    13    14    1
     4    14    15    1
     5    15     1    1
     6     1     2   ar
     7     2     3   ar
     8     3     4   ar
     9     4     5   ar
    10     5     6   ar
    11     6     7    1
    12     7     8    1
    13     8    18    1
    14    18    19   am
    15    19    20    2
    16    19    22    1
    17    22    23   ar
    18    23    24   ar
    19    24    25   ar
    20    25    28    1
    21    28    29    1
    22    29    30    1
    23    30    31    1
    24    31    32    1
    25    31    33    1
    26    31    34    1
    27    25    26   ar
    28    26    27   ar
    29     8     9    1
    30     9    10    1
    31    15    16    1
    32    16    17    1
    33    17    12    1
    34     6     1   ar
    35    27    22   ar
    36    10     5    1
    37    18    21    1
@<TRIPOS>MOLECULE
*****
 34 37 0 0 0
SMALL
GASTEIGER

@<TRIPOS>ATOM
      1 C         140.7105  141.6315  166.6685 C.ar    1  UNL1        0.0468
      2 C         140.4895  141.9347  168.1208 C.ar    1  UNL1        0.0144
      3 C         139.6544  141.0141  168.9604 C.ar    1  UNL1        0.0044
      4 C         139.0401  139.7904  168.3478 C.ar    1  UNL1        0.0367
      5 C         139.2611  139.4873  166.8955 C.ar    1  UNL1        0.1358
      6 C         140.0963  140.4079  166.0558 C.ar    1  UNL1        0.0268
      7 C         140.3172  140.1048  164.6034 C.3     1  UNL1        0.0541
      8 C         139.7030  138.8811  163.9908 C.3     1  UNL1        0.1200
      9 C         138.8678  137.9605  164.8305 C.3     1  UNL1        0.2250
     10 O         138.6469  138.2636  166.2828 O.3     1  UNL1       -0.4739
     11 C         144.0513  145.3137  163.3097 C.3     1  UNL1        0.0897
     12 N         143.2161  144.3932  164.1493 N.3     1  UNL1       -0.2686
     13 C         141.7207  144.5097  164.1296 C.3     1  UNL1        0.0938
     14 C         140.8855  143.5892  164.9693 C.3     1  UNL1        0.1081
     15 N         141.5457  142.5521  165.8287 N.pl3   1  UNL1       -0.3048
     16 C         143.0410  142.4355  165.8485 C.3     1  UNL1        0.1081
     17 C         143.8762  143.3560  165.0088 C.3     1  UNL1        0.0938
     18 N         139.9239  138.5779  162.5384 N.am    1  UNL1       -0.2986
     19 C         141.3083  138.6307  161.9634 C.2     1  UNL1        0.2474
     20 O         142.4718  138.9867  162.8407 O.2     1  UNL1       -0.2701
     21 H         139.1603  138.3443  161.9626 H       1  UNL1        0.1498
     22 C         141.5292  138.3276  160.5110 C.ar    1  UNL1        0.0727
     23 C         140.4485  138.6165  159.5117 C.ar    1  UNL1        0.0109
     24 C         140.6694  138.3134  158.0594 C.ar    1  UNL1        0.0579
     25 C         141.9709  137.7213  157.6064 C.ar    1  UNL1        0.2249
     26 N         143.0517  137.4324  158.6056 N.ar    1  UNL1       -0.2100
     27 C         142.8308  137.7355  160.0579 C.ar    1  UNL1        0.1065
     28 O         142.1918  137.4182  156.1540 O.3     1  UNL1       -0.4599
     29 C         143.5240  136.9098  155.6881 C.3     1  UNL1        0.2159
     30 C         143.8069  135.4368  155.6897 C.3     1  UNL1        0.1505
     31 C         142.6763  134.4560  155.7878 C.3     1  UNL1        0.4014
     32 F         141.5456  133.4752  155.8858 F       1  UNL1       -0.1699
     33 F         142.8010  134.4616  157.2826 F       1  UNL1       -0.1699
     34 F         142.5516  134.4503  154.2930 F       1  UNL1       -0.1699
@<TRIPOS>BOND
     1    11    12    1
     2    12    13    1
     3    13    14    1
     4    14    15    1
     5    15     1    1
     6     1     2   ar
     7     2     3   ar
     8     3     4   ar
     9     4     5   ar
    10     5     6   ar
    11     6     7    1
    12     7     8    1
    13     8    18    1
    14    18    19   am
    15    19    20    2
    16    19    22    1
    17    22    23   ar
    18    23    24   ar
    19    24    25   ar
    20    25    28    1
    21    28    29    1
    22    29    30    1
    23    30    31    1
    24    31    32    1
    25    31    33    1
    26    31    34    1
    27    25    26   ar
    28    26    27   ar
    29     8     9    1
    30     9    10    1
    31    15    16    1
    32    16    17    1
    33    17    12    1
    34     6     1   ar
    35    27    22   ar
    36    10     5    1
    37    18    21    1
@<TRIPOS>MOLECULE
*****
 34 37 0 0 0
SMALL
GASTEIGER

@<TRIPOS>ATOM
      1 C         141.6271  141.0814  159.0157 C.ar    1  UNL1        0.0468
      2 C         141.6255  140.9159  157.5249 C.ar    1  UNL1        0.0144
      3 C         142.1082  139.6347  156.9121 C.ar    1  UNL1        0.0044
      4 C         142.5924  138.5191  157.7901 C.ar    1  UNL1        0.0367
      5 C         142.5939  138.6846  159.2809 C.ar    1  UNL1        0.1358
      6 C         142.1113  139.9658  159.8937 C.ar    1  UNL1        0.0268
      7 C         142.1128  140.1314  161.3846 C.3     1  UNL1        0.0541
      8 C         142.5970  139.0157  162.2626 C.3     1  UNL1        0.1200
      9 C         143.0797  137.7345  161.6497 C.3     1  UNL1        0.2250
     10 O         143.0782  137.5690  160.1589 O.3     1  UNL1       -0.4739
     11 C         139.6963  146.2062  161.4672 C.3     1  UNL1        0.0897
     12 N         140.1790  144.9250  160.8544 N.3     1  UNL1       -0.2686
     13 C         141.5295  144.8668  160.2040 C.3     1  UNL1        0.0938
     14 C         142.0121  143.5856  159.5911 C.3     1  UNL1        0.1081
     15 N         141.1444  142.3627  159.6286 N.pl3   1  UNL1       -0.3048
     16 C         139.7940  142.4209  160.2790 C.3     1  UNL1        0.1081
     17 C         139.3113  143.7020  160.8918 C.3     1  UNL1        0.0938
     18 N         142.5986  139.1813  163.7534 N.am    1  UNL1       -0.2986
     19 C         141.3009  139.2267  164.5043 C.2     1  UNL1        0.2474
     20 O         140.0016  139.1066  163.7645 O.2     1  UNL1       -0.2701
     21 H         143.4513  139.2601  164.2390 H       1  UNL1        0.1498
     22 C         141.3025  139.3923  165.9952 C.ar    1  UNL1        0.0727
     23 C         142.5635  139.1616  166.7741 C.ar    1  UNL1        0.0109
     24 C         142.5652  139.3272  168.2649 C.ar    1  UNL1        0.0579
     25 C         141.3058  139.7233  168.9769 C.ar    1  UNL1        0.2249
     26 N         140.0447  139.9539  168.1980 N.ar    1  UNL1       -0.2100
     27 C         140.0431  139.7884  166.7072 C.ar    1  UNL1        0.1065
     28 O         141.3074  139.8888  170.4677 O.3     1  UNL1       -0.4599
     29 C         142.2391  140.8721  171.1122 C.3     1  UNL1        0.2159
     30 C         142.3461  142.2679  170.5735 C.3     1  UNL1        0.1505
     31 C         143.1094  142.5271  169.3085 C.3     1  UNL1        0.4014
     32 F         143.8728  142.7863  168.0435 F       1  UNL1       -0.1699
     33 F         144.3861  142.1553  170.0027 F       1  UNL1       -0.1699
     34 F         141.8328  142.8989  168.6143 F       1  UNL1       -0.1699
@<TRIPOS>BOND
     1    11    12    1
     2    12    13    1
     3    13    14    1
     4    14    15    1
     5    15     1    1
     6     1     2   ar
     7     2     3   ar
     8     3     4   ar
     9     4     5   ar
    10     5     6   ar
    11     6     7    1
    12     7     8    1
    13     8    18    1
    14    18    19   am
    15    19    20    2
    16    19    22    1
    17    22    23   ar
    18    23    24   ar
    19    24    25   ar
    20    25    28    1
    21    28    29    1
    22    29    30    1
    23    30    31    1
    24    31    32    1
    25    31    33    1
    26    31    34    1
    27    25    26   ar
    28    26    27   ar
    29     8     9    1
    30     9    10    1
    31    15    16    1
    32    16    17    1
    33    17    12    1
    34     6     1   ar
    35    27    22   ar
    36    10     5    1
    37    18    21    1
@<TRIPOS>MOLECULE
*****
 34 37 0 0 0
SMALL
GASTEIGER

@<TRIPOS>ATOM
      1 C         140.5374  140.0086  163.7291 C.ar    1  UNL1        0.0468
      2 C         140.6425  138.8429  164.6672 C.ar    1  UNL1        0.0144
      3 C         139.7770  137.6351  164.4625 C.ar    1  UNL1        0.0044
      4 C         138.8062  137.5930  163.3198 C.ar    1  UNL1        0.0367
      5 C         138.7011  138.7587  162.3817 C.ar    1  UNL1        0.1358
      6 C         139.5667  139.9665  162.5864 C.ar    1  UNL1        0.0268
      7 C         139.4616  141.1322  161.6482 C.3     1  UNL1        0.0541
      8 C         138.4909  141.0901  160.5055 C.3     1  UNL1        0.1200
      9 C         137.6252  139.8822  160.3008 C.3     1  UNL1        0.2250
     10 O         137.7304  138.7165  161.2389 O.3     1  UNL1       -0.4739
     11 C         143.9997  144.8400  164.5477 C.3     1  UNL1        0.0897
     12 N         143.1342  143.6322  164.3431 N.3     1  UNL1       -0.2686
     13 C         143.7227  142.3756  163.7733 C.3     1  UNL1        0.0938
     14 C         142.8571  141.1677  163.5687 C.3     1  UNL1        0.1081
     15 N         141.4030  141.2165  163.9338 N.pl3   1  UNL1       -0.3048
     16 C         140.8145  142.4731  164.5035 C.3     1  UNL1        0.1081
     17 C         141.6800  143.6809  164.7082 C.3     1  UNL1        0.0938
     18 N         138.3857  142.2558  159.5674 N.am    1  UNL1       -0.2986
     19 C         139.4247  142.4595  158.5048 C.2     1  UNL1        0.2474
     20 O         140.5689  141.4976  158.3804 O.2     1  UNL1       -0.2701
     21 H         137.6348  142.8872  159.6490 H       1  UNL1        0.1498
     22 C         139.3195  143.6253  157.5667 C.ar    1  UNL1        0.0727
     23 C         138.3762  143.5678  156.4019 C.ar    1  UNL1        0.0109
     24 C         138.2710  144.7335  155.4638 C.ar    1  UNL1        0.0579
     25 C         139.1091  145.9567  155.6905 C.ar    1  UNL1        0.2249
     26 N         140.0524  146.0141  156.8554 N.ar    1  UNL1       -0.2100
     27 C         140.1577  144.8484  157.7935 C.ar    1  UNL1        0.1065
     28 O         139.0039  147.1224  154.7524 O.3     1  UNL1       -0.4599
     29 C         139.4428  148.4858  155.1981 C.3     1  UNL1        0.2159
     30 C         138.4229  149.5008  155.6217 C.3     1  UNL1        0.1505
     31 C         138.4897  150.1036  156.9936 C.3     1  UNL1        0.4014
     32 F         138.5564  150.7065  158.3655 F       1  UNL1       -0.1699
     33 F         138.6578  151.4652  156.3871 F       1  UNL1       -0.1699
     34 F         138.3215  148.7421  157.6001 F       1  UNL1       -0.1699
@<TRIPOS>BOND
     1    11    12    1
     2    12    13    1
     3    13    14    1
     4    14    15    1
     5    15     1    1
     6     1     2   ar
     7     2     3   ar
     8     3     4   ar
     9     4     5   ar
    10     5     6   ar
    11     6     7    1
    12     7     8    1
    13     8    18    1
    14    18    19   am
    15    19    20    2
    16    19    22    1
    17    22    23   ar
    18    23    24   ar
    19    24    25   ar
    20    25    28    1
    21    28    29    1
    22    29    30    1
    23    30    31    1
    24    31    32    1
    25    31    33    1
    26    31    34    1
    27    25    26   ar
    28    26    27   ar
    29     8     9    1
    30     9    10    1
    31    15    16    1
    32    16    17    1
    33    17    12    1
    34     6     1   ar
    35    27    22   ar
    36    10     5    1
    37    18    21    1
