@<TRIPOS>MOLECULE
*****
 28 31 0 0 0
SMALL
GASTEIGER

@<TRIPOS>ATOM
      1 O         142.9766  139.7376  166.8200 O.3     1  UNL1       -0.3792
      2 C         141.7683  140.2318  166.0814 C.3     1  UNL1        0.1469
      3 H         142.7201  139.0126  167.4112 H       1  UNL1        0.2108
      4 C         140.4297  139.6003  166.3256 C.ar    1  UNL1        0.0227
      5 C         139.7770  138.7857  165.2484 C.ar    1  UNL1        0.0012
      6 C         138.4385  138.1542  165.4926 C.ar    1  UNL1        0.0204
      7 C         137.7527  138.3374  166.8139 C.ar    1  UNL1        0.0988
      8 N         138.4054  139.1520  167.8911 N.ar    1  UNL1       -0.2441
      9 C         139.7439  139.7835  167.6470 C.ar    1  UNL1        0.0796
     10 C         140.3966  140.5981  168.7242 C.ar    1  UNL1        0.0183
     11 C         141.3309  139.9430  169.6978 C.ar    1  UNL1        0.0015
     12 C         141.9836  140.7577  170.7750 C.ar    1  UNL1        0.0009
     13 C         141.7020  142.2273  170.8786 C.ar    1  UNL1        0.0114
     14 C         140.7678  142.8824  169.9050 C.ar    1  UNL1        0.0577
     15 CL        140.4862  144.3521  170.0085 Cl      1  UNL1       -0.0822
     16 C         140.1151  142.0678  168.8277 C.ar    1  UNL1        0.0129
     17 C         141.8984  141.3574  165.0985 C.3     1  UNL1        0.1313
     18 C         140.7157  142.2288  164.7952 C.ar    1  UNL1        0.0081
     19 C         140.3414  143.3381  165.7329 C.ar    1  UNL1       -0.0006
     20 C         139.1587  144.2094  165.4296 C.ar    1  UNL1        0.0204
     21 C         138.3504  143.9715  164.1886 C.ar    1  UNL1        0.0989
     22 N         138.7248  142.8622  163.2509 N.ar    1  UNL1       -0.2426
     23 C         139.9074  141.9908  163.5542 C.ar    1  UNL1        0.0951
     24 C         143.2112  141.6116  164.4189 C.ar    1  UNL1        0.2123
     25 N         143.4591  142.6063  163.3238 N.ar    1  UNL1       -0.2100
     26 C         144.9078  142.5252  162.9431 C.ar    1  UNL1        0.1424
     27 C         145.5552  141.4804  163.8029 C.ar    1  UNL1        0.2018
     28 O         144.5067  140.9157  164.7149 O.2     1  UNL1       -0.4348
@<TRIPOS>BOND
     1     1     2    1
     2     2     4    1
     3     4     5   ar
     4     5     6   ar
     5     6     7   ar
     6     7     8   ar
     7     8     9   ar
     8     9    10    1
     9    10    11   ar
    10    11    12   ar
    11    12    13   ar
    12    13    14   ar
    13    14    15    1
    14    14    16   ar
    15     2    17    1
    16    17    18    1
    17    18    19   ar
    18    19    20   ar
    19    20    21   ar
    20    21    22   ar
    21    22    23   ar
    22    17    24    1
    23    24    25   ar
    24    25    26   ar
    25    26    27   ar
    26    27    28   ar
    27     9     4   ar
    28    16    10   ar
    29    23    18   ar
    30    28    24   ar
    31     1     3    1
@<TRIPOS>MOLECULE
*****
 28 31 0 0 0
SMALL
GASTEIGER

@<TRIPOS>ATOM
      1 O         139.0070  139.4207  167.8450 O.3     1  UNL1       -0.3792
      2 C         139.7604  140.5974  167.2995 C.3     1  UNL1        0.1469
      3 H         139.1565  139.3560  168.8012 H       1  UNL1        0.2108
      4 C         140.5803  141.4543  168.2180 C.ar    1  UNL1        0.0227
      5 C         139.9042  142.3110  169.2470 C.ar    1  UNL1        0.0012
      6 C         140.7239  143.1679  170.1656 C.ar    1  UNL1        0.0204
      7 C         142.2198  143.1680  170.0551 C.ar    1  UNL1        0.0988
      8 N         142.8960  142.3113  169.0261 N.ar    1  UNL1       -0.2441
      9 C         142.0762  141.4544  168.1075 C.ar    1  UNL1        0.0796
     10 C         142.7523  140.5977  167.0785 C.ar    1  UNL1        0.0183
     11 C         142.9155  139.1259  167.3178 C.ar    1  UNL1        0.0015
     12 C         143.5916  138.2692  166.2888 C.ar    1  UNL1        0.0009
     13 C         144.1046  138.8842  165.0205 C.ar    1  UNL1        0.0114
     14 C         143.9414  140.3559  164.7812 C.ar    1  UNL1        0.0577
     15 CL        144.4544  140.9710  163.5129 Cl      1  UNL1       -0.0822
     16 C         143.2653  141.2127  165.8102 C.ar    1  UNL1        0.0129
     17 C         139.6941  140.9173  165.8355 C.3     1  UNL1        0.1313
     18 C         140.1082  139.8901  164.8238 C.ar    1  UNL1        0.0081
     19 C         140.0827  138.4334  165.1804 C.ar    1  UNL1       -0.0006
     20 C         140.4968  137.4063  164.1687 C.ar    1  UNL1        0.0204
     21 C         140.9363  137.8359  162.8004 C.ar    1  UNL1        0.0989
     22 N         140.9618  139.2926  162.4438 N.ar    1  UNL1       -0.2426
     23 C         140.5477  140.3197  163.4555 C.ar    1  UNL1        0.0951
     24 C         139.2136  142.2643  165.3832 C.ar    1  UNL1        0.2123
     25 N         137.9306  142.5452  164.6586 N.ar    1  UNL1       -0.2100
     26 C         137.8558  144.0215  164.4036 C.ar    1  UNL1        0.1424
     27 C         139.0926  144.6530  164.9706 C.ar    1  UNL1        0.2018
     28 O         139.9317  143.5671  165.5760 O.2     1  UNL1       -0.4348
@<TRIPOS>BOND
     1     1     2    1
     2     2     4    1
     3     4     5   ar
     4     5     6   ar
     5     6     7   ar
     6     7     8   ar
     7     8     9   ar
     8     9    10    1
     9    10    11   ar
    10    11    12   ar
    11    12    13   ar
    12    13    14   ar
    13    14    15    1
    14    14    16   ar
    15     2    17    1
    16    17    18    1
    17    18    19   ar
    18    19    20   ar
    19    20    21   ar
    20    21    22   ar
    21    22    23   ar
    22    17    24    1
    23    24    25   ar
    24    25    26   ar
    25    26    27   ar
    26    27    28   ar
    27     9     4   ar
    28    16    10   ar
    29    23    18   ar
    30    28    24   ar
    31     1     3    1
@<TRIPOS>MOLECULE
*****
 28 31 0 0 0
SMALL
GASTEIGER

@<TRIPOS>ATOM
      1 O         137.8377  139.5322  166.5506 O.3     1  UNL1       -0.3792
      2 C         139.1272  139.7133  165.8059 C.3     1  UNL1        0.1469
      3 H         137.1495  139.2313  165.9369 H       1  UNL1        0.2108
      4 C         139.1890  139.4318  164.3338 C.ar    1  UNL1        0.0227
      5 C         139.2354  138.0154  163.8423 C.ar    1  UNL1        0.0012
      6 C         139.2972  137.7340  162.3703 C.ar    1  UNL1        0.0204
      7 C         139.3127  138.8689  161.3898 C.ar    1  UNL1        0.0988
      8 N         139.2664  140.2854  161.8812 N.ar    1  UNL1       -0.2441
      9 C         139.2046  140.5668  163.3533 C.ar    1  UNL1        0.0796
     10 C         139.1582  141.9833  163.8447 C.ar    1  UNL1        0.0183
     11 C         137.8972  142.5269  164.4482 C.ar    1  UNL1        0.0015
     12 C         137.8509  143.9433  164.9397 C.ar    1  UNL1        0.0009
     13 C         139.0656  144.8162  164.8277 C.ar    1  UNL1        0.0114
     14 C         140.3266  144.2725  164.2243 C.ar    1  UNL1        0.0577
     15 CL        141.5414  145.1454  164.1123 Cl      1  UNL1       -0.0822
     16 C         140.3730  142.8561  163.7328 C.ar    1  UNL1        0.0129
     17 C         140.3548  140.1758  166.5333 C.3     1  UNL1        0.1313
     18 C         140.2228  141.0245  167.7631 C.ar    1  UNL1        0.0081
     19 C         140.5060  142.4958  167.6928 C.ar    1  UNL1       -0.0006
     20 C         140.3740  143.3445  168.9225 C.ar    1  UNL1        0.0204
     21 C         139.9588  142.7219  170.2225 C.ar    1  UNL1        0.0989
     22 N         139.6755  141.2506  170.2928 N.ar    1  UNL1       -0.2426
     23 C         139.8075  140.4019  169.0630 C.ar    1  UNL1        0.0951
     24 C         141.7144  139.7895  166.0310 C.ar    1  UNL1        0.2123
     25 N         142.6064  138.7379  166.6213 N.ar    1  UNL1       -0.2100
     26 C         143.8640  138.6855  165.8053 C.ar    1  UNL1        0.1424
     27 C         143.7492  139.7047  164.7108 C.ar    1  UNL1        0.2018
     28 O         142.4207  140.3870  164.8503 O.2     1  UNL1       -0.4348
@<TRIPOS>BOND
     1     1     2    1
     2     2     4    1
     3     4     5   ar
     4     5     6   ar
     5     6     7   ar
     6     7     8   ar
     7     8     9   ar
     8     9    10    1
     9    10    11   ar
    10    11    12   ar
    11    12    13   ar
    12    13    14   ar
    13    14    15    1
    14    14    16   ar
    15     2    17    1
    16    17    18    1
    17    18    19   ar
    18    19    20   ar
    19    20    21   ar
    20    21    22   ar
    21    22    23   ar
    22    17    24    1
    23    24    25   ar
    24    25    26   ar
    25    26    27   ar
    26    27    28   ar
    27     9     4   ar
    28    16    10   ar
    29    23    18   ar
    30    28    24   ar
    31     1     3    1
@<TRIPOS>MOLECULE
*****
 28 31 0 0 0
SMALL
GASTEIGER

@<TRIPOS>ATOM
      1 O         139.5208  140.0134  167.4715 O.3     1  UNL1       -0.3792
      2 C         139.8131  140.9286  166.3196 C.3     1  UNL1        0.1469
      3 H         139.0779  139.2144  167.1454 H       1  UNL1        0.2108
      4 C         139.4196  140.5314  164.9276 C.ar    1  UNL1        0.0227
      5 C         138.0285  140.8012  164.4357 C.ar    1  UNL1        0.0012
      6 C         137.6350  140.4041  163.0438 C.ar    1  UNL1        0.0204
      7 C         138.6326  139.7372  162.1438 C.ar    1  UNL1        0.0988
      8 N         140.0237  139.4674  162.6358 N.ar    1  UNL1       -0.2441
      9 C         140.4172  139.8645  164.0277 C.ar    1  UNL1        0.0796
     10 C         141.8083  139.5947  164.5196 C.ar    1  UNL1        0.0183
     11 C         142.0559  138.4844  165.4974 C.ar    1  UNL1        0.0015
     12 C         143.4470  138.2146  165.9893 C.ar    1  UNL1        0.0009
     13 C         144.5905  139.0550  165.5035 C.ar    1  UNL1        0.0114
     14 C         144.3429  140.1652  164.5258 C.ar    1  UNL1        0.0577
     15 CL        145.4865  141.0057  164.0399 Cl      1  UNL1       -0.0822
     16 C         142.9518  140.4351  164.0338 C.ar    1  UNL1        0.0129
     17 C         140.4988  142.2409  166.5596 C.3     1  UNL1        0.1313
     18 C         141.2437  142.4747  167.8404 C.ar    1  UNL1        0.0081
     19 C         142.6578  141.9953  167.9839 C.ar    1  UNL1       -0.0006
     20 C         143.4026  142.2291  169.2647 C.ar    1  UNL1        0.0204
     21 C         142.7334  142.9424  170.4020 C.ar    1  UNL1        0.0989
     22 N         141.3194  143.4219  170.2585 N.ar    1  UNL1       -0.2426
     23 C         140.5746  143.1880  168.9777 C.ar    1  UNL1        0.0951
     24 C         140.4397  143.3194  165.5187 C.ar    1  UNL1        0.2123
     25 N         139.2389  144.1513  165.1784 N.ar    1  UNL1       -0.2100
     26 C         139.6280  145.1014  164.0848 C.ar    1  UNL1        0.1424
     27 C         141.0694  144.8567  163.7493 C.ar    1  UNL1        0.2018
     28 O         141.5710  143.7553  164.6355 O.2     1  UNL1       -0.4348
@<TRIPOS>BOND
     1     1     2    1
     2     2     4    1
     3     4     5   ar
     4     5     6   ar
     5     6     7   ar
     6     7     8   ar
     7     8     9   ar
     8     9    10    1
     9    10    11   ar
    10    11    12   ar
    11    12    13   ar
    12    13    14   ar
    13    14    15    1
    14    14    16   ar
    15     2    17    1
    16    17    18    1
    17    18    19   ar
    18    19    20   ar
    19    20    21   ar
    20    21    22   ar
    21    22    23   ar
    22    17    24    1
    23    24    25   ar
    24    25    26   ar
    25    26    27   ar
    26    27    28   ar
    27     9     4   ar
    28    16    10   ar
    29    23    18   ar
    30    28    24   ar
    31     1     3    1
@<TRIPOS>MOLECULE
*****
 28 31 0 0 0
SMALL
GASTEIGER

@<TRIPOS>ATOM
      1 O         136.6579  141.2618  163.2884 O.3     1  UNL1       -0.3792
      2 C         138.0008  140.6483  163.5538 C.3     1  UNL1        0.1469
      3 H         136.2458  141.5142  164.1294 H       1  UNL1        0.2108
      4 C         138.4979  140.5123  164.9625 C.ar    1  UNL1        0.0227
      5 C         138.0674  139.3449  165.8003 C.ar    1  UNL1        0.0012
      6 C         138.5645  139.2088  167.2089 C.ar    1  UNL1        0.0204
      7 C         139.4922  140.2400  167.7798 C.ar    1  UNL1        0.0988
      8 N         139.9227  141.4074  166.9420 N.ar    1  UNL1       -0.2441
      9 C         139.4256  141.5435  165.5334 C.ar    1  UNL1        0.0796
     10 C         139.8561  142.7109  164.6956 C.ar    1  UNL1        0.0183
     11 C         138.9482  143.8940  164.5347 C.ar    1  UNL1        0.0015
     12 C         139.3788  145.0614  163.6969 C.ar    1  UNL1        0.0009
     13 C         140.7172  145.0456  163.0200 C.ar    1  UNL1        0.0114
     14 C         141.6251  143.8625  163.1808 C.ar    1  UNL1        0.0577
     15 CL        142.9636  143.8467  162.5039 Cl      1  UNL1       -0.0822
     16 C         141.1946  142.6951  164.0186 C.ar    1  UNL1        0.0129
     17 C         138.8464  140.1709  162.4106 C.3     1  UNL1        0.1313
     18 C         138.6062  140.7003  161.0278 C.ar    1  UNL1        0.0081
     19 C         138.9823  142.1124  160.6894 C.ar    1  UNL1       -0.0006
     20 C         138.7421  142.6417  159.3067 C.ar    1  UNL1        0.0204
     21 C         138.1259  141.7588  158.2622 C.ar    1  UNL1        0.0989
     22 N         137.7498  140.3467  158.6005 N.ar    1  UNL1       -0.2426
     23 C         137.9900  139.8175  159.9833 C.ar    1  UNL1        0.0951
     24 C         139.9323  139.1642  162.6502 C.ar    1  UNL1        0.2123
     25 N         141.4036  139.3950  162.4714 N.ar    1  UNL1       -0.2100
     26 C         142.1182  138.1233  162.8213 C.ar    1  UNL1        0.1424
     27 C         141.0884  137.1067  163.2163 C.ar    1  UNL1        0.2018
     28 O         139.7375  137.7500  163.1105 O.2     1  UNL1       -0.4348
@<TRIPOS>BOND
     1     1     2    1
     2     2     4    1
     3     4     5   ar
     4     5     6   ar
     5     6     7   ar
     6     7     8   ar
     7     8     9   ar
     8     9    10    1
     9    10    11   ar
    10    11    12   ar
    11    12    13   ar
    12    13    14   ar
    13    14    15    1
    14    14    16   ar
    15     2    17    1
    16    17    18    1
    17    18    19   ar
    18    19    20   ar
    19    20    21   ar
    20    21    22   ar
    21    22    23   ar
    22    17    24    1
    23    24    25   ar
    24    25    26   ar
    25    26    27   ar
    26    27    28   ar
    27     9     4   ar
    28    16    10   ar
    29    23    18   ar
    30    28    24   ar
    31     1     3    1
@<TRIPOS>MOLECULE
*****
 28 31 0 0 0
SMALL
GASTEIGER

@<TRIPOS>ATOM
      1 O         139.2853  140.2469  167.1420 O.3     1  UNL1       -0.3792
      2 C         140.4927  139.9507  166.3026 C.3     1  UNL1        0.1469
      3 H         138.4832  140.0183  166.6468 H       1  UNL1        0.2108
      4 C         140.3267  139.3873  164.9224 C.ar    1  UNL1        0.0227
      5 C         140.5814  137.9306  164.6713 C.ar    1  UNL1        0.0012
      6 C         140.4154  137.3671  163.2911 C.ar    1  UNL1        0.0204
      7 C         139.9946  138.2604  162.1620 C.ar    1  UNL1        0.0988
      8 N         139.7399  139.7172  162.4131 N.ar    1  UNL1       -0.2441
      9 C         139.9059  140.2806  163.7932 C.ar    1  UNL1        0.0796
     10 C         139.6512  141.7374  164.0443 C.ar    1  UNL1        0.0183
     11 C         138.2894  142.1977  164.4727 C.ar    1  UNL1        0.0015
     12 C         138.0347  143.6544  164.7238 C.ar    1  UNL1        0.0009
     13 C         139.1417  144.6508  164.5464 C.ar    1  UNL1        0.0114
     14 C         140.5035  144.1905  164.1180 C.ar    1  UNL1        0.0577
     15 CL        141.6107  145.1869  163.9407 Cl      1  UNL1       -0.0822
     16 C         140.7583  142.7338  163.8670 C.ar    1  UNL1        0.0129
     17 C         141.8660  140.2180  166.8434 C.3     1  UNL1        0.1313
     18 C         143.0180  140.4122  165.9024 C.ar    1  UNL1        0.0081
     19 C         143.7340  139.2213  165.3376 C.ar    1  UNL1       -0.0006
     20 C         144.8859  139.4156  164.3967 C.ar    1  UNL1        0.0204
     21 C         145.3217  140.8007  164.0205 C.ar    1  UNL1        0.0989
     22 N         144.6057  141.9916  164.5853 N.ar    1  UNL1       -0.2426
     23 C         143.4538  141.7973  165.5262 C.ar    1  UNL1        0.0951
     24 C         142.0875  140.2911  168.3252 C.ar    1  UNL1        0.2123
     25 N         141.3966  141.2241  169.2750 N.ar    1  UNL1       -0.2100
     26 C         141.9209  140.9536  170.6541 C.ar    1  UNL1        0.1424
     27 C         142.9358  139.8534  170.5567 C.ar    1  UNL1        0.2018
     28 O         143.0387  139.4439  169.1173 O.2     1  UNL1       -0.4348
@<TRIPOS>BOND
     1     1     2    1
     2     2     4    1
     3     4     5   ar
     4     5     6   ar
     5     6     7   ar
     6     7     8   ar
     7     8     9   ar
     8     9    10    1
     9    10    11   ar
    10    11    12   ar
    11    12    13   ar
    12    13    14   ar
    13    14    15    1
    14    14    16   ar
    15     2    17    1
    16    17    18    1
    17    18    19   ar
    18    19    20   ar
    19    20    21   ar
    20    21    22   ar
    21    22    23   ar
    22    17    24    1
    23    24    25   ar
    24    25    26   ar
    25    26    27   ar
    26    27    28   ar
    27     9     4   ar
    28    16    10   ar
    29    23    18   ar
    30    28    24   ar
    31     1     3    1
@<TRIPOS>MOLECULE
*****
 28 31 0 0 0
SMALL
GASTEIGER

@<TRIPOS>ATOM
      1 O         139.6677  143.8432  166.6082 O.3     1  UNL1       -0.3792
      2 C         140.2158  143.1464  165.3982 C.3     1  UNL1        0.1469
      3 H         140.2728  144.5531  166.8743 H       1  UNL1        0.2108
      4 C         141.5172  143.5931  164.8007 C.ar    1  UNL1        0.0227
      5 C         141.5433  144.7355  163.8290 C.ar    1  UNL1        0.0012
      6 C         142.8446  145.1822  163.2314 C.ar    1  UNL1        0.0204
      7 C         144.1197  144.4865  163.6056 C.ar    1  UNL1        0.0988
      8 N         144.0935  143.3441  164.5773 N.ar    1  UNL1       -0.2441
      9 C         142.7922  142.8974  165.1749 C.ar    1  UNL1        0.0796
     10 C         142.7661  141.7550  166.1466 C.ar    1  UNL1        0.0183
     11 C         142.6775  140.3446  165.6438 C.ar    1  UNL1        0.0015
     12 C         142.6513  139.2022  166.6155 C.ar    1  UNL1        0.0009
     13 C         142.7137  139.4701  168.0900 C.ar    1  UNL1        0.0114
     14 C         142.8023  140.8805  168.5928 C.ar    1  UNL1        0.0577
     15 CL        142.8648  141.1486  170.0674 Cl      1  UNL1       -0.0822
     16 C         142.8285  142.0230  167.6211 C.ar    1  UNL1        0.0129
     17 C         139.4625  142.0030  164.7858 C.3     1  UNL1        0.1313
     18 C         139.1483  142.0117  163.3190 C.ar    1  UNL1        0.0081
     19 C         139.9238  141.1353  162.3807 C.ar    1  UNL1       -0.0006
     20 C         139.6095  141.1441  160.9140 C.ar    1  UNL1        0.0204
     21 C         138.5199  142.0293  160.3857 C.ar    1  UNL1        0.0989
     22 N         137.7444  142.9057  161.3241 N.ar    1  UNL1       -0.2426
     23 C         138.0587  142.8969  162.7907 C.ar    1  UNL1        0.0951
     24 C         139.0234  140.8508  165.6400 C.ar    1  UNL1        0.2123
     25 N         138.1216  139.7306  165.2137 N.ar    1  UNL1       -0.2100
     26 C         137.9498  138.8040  166.3807 C.ar    1  UNL1        0.1424
     27 C         138.7456  139.3515  167.5283 C.ar    1  UNL1        0.2018
     28 O         139.4091  140.6165  167.0705 O.2     1  UNL1       -0.4348
@<TRIPOS>BOND
     1     1     2    1
     2     2     4    1
     3     4     5   ar
     4     5     6   ar
     5     6     7   ar
     6     7     8   ar
     7     8     9   ar
     8     9    10    1
     9    10    11   ar
    10    11    12   ar
    11    12    13   ar
    12    13    14   ar
    13    14    15    1
    14    14    16   ar
    15     2    17    1
    16    17    18    1
    17    18    19   ar
    18    19    20   ar
    19    20    21   ar
    20    21    22   ar
    21    22    23   ar
    22    17    24    1
    23    24    25   ar
    24    25    26   ar
    25    26    27   ar
    26    27    28   ar
    27     9     4   ar
    28    16    10   ar
    29    23    18   ar
    30    28    24   ar
    31     1     3    1
@<TRIPOS>MOLECULE
*****
 28 31 0 0 0
SMALL
GASTEIGER

@<TRIPOS>ATOM
      1 O         142.9308  142.5176  167.3095 O.3     1  UNL1       -0.3792
      2 C         141.5912  142.1551  166.7403 C.3     1  UNL1        0.1469
      3 H         143.2575  143.3234  166.8796 H       1  UNL1        0.2108
      4 C         140.9752  143.0075  165.6707 C.ar    1  UNL1        0.0227
      5 C         139.7215  143.7800  165.9565 C.ar    1  UNL1        0.0012
      6 C         139.1056  144.6324  164.8870 C.ar    1  UNL1        0.0204
      7 C         139.7432  144.7123  163.5316 C.ar    1  UNL1        0.0988
      8 N         140.9969  143.9399  163.2458 N.ar    1  UNL1       -0.2441
      9 C         141.6128  143.0875  164.3154 C.ar    1  UNL1        0.0796
     10 C         142.8665  142.3150  164.0296 C.ar    1  UNL1        0.0183
     11 C         144.2065  142.9406  164.2802 C.ar    1  UNL1        0.0015
     12 C         145.4602  142.1681  163.9944 C.ar    1  UNL1        0.0009
     13 C         145.3738  140.7701  163.4580 C.ar    1  UNL1        0.0114
     14 C         144.0337  140.1444  163.2073 C.ar    1  UNL1        0.0577
     15 CL        143.9473  138.7463  162.6709 Cl      1  UNL1       -0.0822
     16 C         142.7801  140.9169  163.4931 C.ar    1  UNL1        0.0129
     17 C         140.8675  140.9403  167.2407 C.3     1  UNL1        0.1313
     18 C         140.3113  139.9443  166.2666 C.ar    1  UNL1        0.0081
     19 C         141.1817  138.8404  165.7434 C.ar    1  UNL1       -0.0006
     20 C         140.6255  137.8445  164.7693 C.ar    1  UNL1        0.0204
     21 C         139.1990  137.9525  164.3185 C.ar    1  UNL1        0.0989
     22 N         138.3286  139.0564  164.8417 N.ar    1  UNL1       -0.2426
     23 C         138.8848  140.0523  165.8158 C.ar    1  UNL1        0.0951
     24 C         140.7000  140.7213  168.7151 C.ar    1  UNL1        0.2123
     25 N         141.4556  141.4259  169.8026 N.ar    1  UNL1       -0.2100
     26 C         140.9700  140.8994  171.1206 C.ar    1  UNL1        0.1424
     27 C         139.9143  139.8694  170.8476 C.ar    1  UNL1        0.2018
     28 O         139.7474  139.7593  169.3610 O.2     1  UNL1       -0.4348
@<TRIPOS>BOND
     1     1     2    1
     2     2     4    1
     3     4     5   ar
     4     5     6   ar
     5     6     7   ar
     6     7     8   ar
     7     8     9   ar
     8     9    10    1
     9    10    11   ar
    10    11    12   ar
    11    12    13   ar
    12    13    14   ar
    13    14    15    1
    14    14    16   ar
    15     2    17    1
    16    17    18    1
    17    18    19   ar
    18    19    20   ar
    19    20    21   ar
    20    21    22   ar
    21    22    23   ar
    22    17    24    1
    23    24    25   ar
    24    25    26   ar
    25    26    27   ar
    26    27    28   ar
    27     9     4   ar
    28    16    10   ar
    29    23    18   ar
    30    28    24   ar
    31     1     3    1
@<TRIPOS>MOLECULE
*****
 28 31 0 0 0
SMALL
GASTEIGER

@<TRIPOS>ATOM
      1 O         139.5255  140.3167  167.0266 O.3     1  UNL1       -0.3792
      2 C         140.4352  141.3456  166.4235 C.3     1  UNL1        0.1469
      3 H         138.6398  140.4019  166.6403 H       1  UNL1        0.2108
      4 C         139.9105  142.2962  165.3886 C.ar    1  UNL1        0.0227
      5 C         139.6946  143.7393  165.7364 C.ar    1  UNL1        0.0012
      6 C         139.1700  144.6899  164.7016 C.ar    1  UNL1        0.0204
      7 C         138.8612  144.1975  163.3188 C.ar    1  UNL1        0.0988
      8 N         139.0770  142.7544  162.9709 N.ar    1  UNL1       -0.2441
      9 C         139.6017  141.8038  164.0058 C.ar    1  UNL1        0.0796
     10 C         139.8176  140.3608  163.6579 C.ar    1  UNL1        0.0183
     11 C         138.7636  139.3447  163.9846 C.ar    1  UNL1        0.0015
     12 C         138.9795  137.9017  163.6367 C.ar    1  UNL1        0.0009
     13 C         140.2493  137.4747  162.9621 C.ar    1  UNL1        0.0114
     14 C         141.3033  138.4907  162.6354 C.ar    1  UNL1        0.0577
     15 CL        142.5732  138.0637  161.9609 Cl      1  UNL1       -0.0822
     16 C         141.0874  139.9337  162.9833 C.ar    1  UNL1        0.0129
     17 C         141.8695  141.4240  166.8554 C.3     1  UNL1        0.1313
     18 C         142.9648  141.1121  165.8791 C.ar    1  UNL1        0.0081
     19 C         143.3972  139.6917  165.6657 C.ar    1  UNL1       -0.0006
     20 C         144.4925  139.3799  164.6894 C.ar    1  UNL1        0.0204
     21 C         145.1554  140.4884  163.9267 C.ar    1  UNL1        0.0989
     22 N         144.7230  141.9087  164.1401 N.ar    1  UNL1       -0.2426
     23 C         143.6277  142.2206  165.1163 C.ar    1  UNL1        0.0951
     24 C         142.2086  141.8142  168.2635 C.ar    1  UNL1        0.2123
     25 N         143.4393  142.5511  168.7021 N.ar    1  UNL1       -0.2100
     26 C         143.3678  142.7285  170.1899 C.ar    1  UNL1        0.1424
     27 C         142.0929  142.1012  170.6708 C.ar    1  UNL1        0.2018
     28 O         141.3765  141.5362  169.4801 O.2     1  UNL1       -0.4348
@<TRIPOS>BOND
     1     1     2    1
     2     2     4    1
     3     4     5   ar
     4     5     6   ar
     5     6     7   ar
     6     7     8   ar
     7     8     9   ar
     8     9    10    1
     9    10    11   ar
    10    11    12   ar
    11    12    13   ar
    12    13    14   ar
    13    14    15    1
    14    14    16   ar
    15     2    17    1
    16    17    18    1
    17    18    19   ar
    18    19    20   ar
    19    20    21   ar
    20    21    22   ar
    21    22    23   ar
    22    17    24    1
    23    24    25   ar
    24    25    26   ar
    25    26    27   ar
    26    27    28   ar
    27     9     4   ar
    28    16    10   ar
    29    23    18   ar
    30    28    24   ar
    31     1     3    1
