@<TRIPOS>MOLECULE
*****
 31 34 0 0 0
SMALL
GASTEIGER

@<TRIPOS>ATOM
      1 C         139.8540  138.5128  163.5701 C.3     1  UNL1        0.0420
      2 C         140.2584  139.9277  163.8611 C.3     1  UNL1        0.1912
      3 O         140.2231  140.9571  162.7707 O.3     1  UNL1       -0.3500
      4 C         140.6276  142.3720  163.0617 C.3     1  UNL1        0.1145
      5 C         141.0320  143.7868  163.3527 C.3     1  UNL1        0.0463
      6 C         140.9967  144.8163  162.2624 C.3     1  UNL1        0.0746
      7 N         140.5571  144.4309  160.8810 N.3     1  UNL1       -0.2722
      8 C         140.1526  143.0161  160.5900 C.3     1  UNL1        0.0746
      9 C         140.1879  141.9867  161.6803 C.3     1  UNL1        0.0463
     10 C         141.0672  142.7573  164.4431 C.3     1  UNL1        0.1254
     11 N         141.1025  141.7278  165.5335 N.am    1  UNL1       -0.2528
     12 C         140.6981  140.3130  165.2425 C.2     1  UNL1        0.2566
     13 O         140.7333  139.2834  166.3329 O.2     1  UNL1       -0.2719
     14 C         141.5422  142.1131  166.9149 C.ar    1  UNL1        0.0731
     15 C         142.9999  142.1026  167.2683 C.ar    1  UNL1        0.1137
     16 N         143.4395  142.4879  168.6496 N.ar    1  UNL1       -0.2411
     17 C         142.4215  142.8838  169.6776 C.ar    1  UNL1        0.1028
     18 C         140.9637  142.8944  169.3242 C.ar    1  UNL1        0.0918
     19 C         140.5240  142.5091  167.9429 C.ar    1  UNL1        0.0219
     20 C         139.9457  143.2903  170.3522 C.3     1  UNL1        0.4201
     21 F         138.9276  143.6863  171.3802 F       1  UNL1       -0.1658
     22 F         139.5289  141.8562  170.4918 F       1  UNL1       -0.1658
     23 F         140.3624  144.7245  170.2126 F       1  UNL1       -0.1658
     24 C         140.5218  145.4605  159.7906 C.3     1  UNL1        0.0768
     25 C         140.9415  145.0929  158.3983 C.3     1  UNL1        0.0437
     26 C         139.9631  145.2022  157.2665 C.ar    1  UNL1       -0.0208
     27 C         139.2368  143.9824  156.7825 C.ar    1  UNL1       -0.0042
     28 C         138.2584  144.0917  155.6508 C.ar    1  UNL1       -0.0003
     29 C         138.0064  145.4210  155.0031 C.ar    1  UNL1       -0.0000
     30 C         138.7327  146.6409  155.4870 C.ar    1  UNL1       -0.0003
     31 C         139.7110  146.5315  156.6188 C.ar    1  UNL1       -0.0042
@<TRIPOS>BOND
     1     1     2    1
     2     2     3    1
     3     3     4    1
     4     4     5    1
     5     5     6    1
     6     6     7    1
     7     7    24    1
     8    24    25    1
     9    25    26    1
    10    26    27   ar
    11    27    28   ar
    12    28    29   ar
    13    29    30   ar
    14    30    31   ar
    15     7     8    1
    16     8     9    1
    17     4    10    1
    18    10    11    1
    19    11    14    1
    20    14    15   ar
    21    15    16   ar
    22    16    17   ar
    23    17    18   ar
    24    18    20    1
    25    20    21    1
    26    20    22    1
    27    20    23    1
    28    18    19   ar
    29    11    12   am
    30    12    13    2
    31    12     2    1
    32     9     4    1
    33    19    14   ar
    34    31    26   ar
@<TRIPOS>MOLECULE
*****
 31 34 0 0 0
SMALL
GASTEIGER

@<TRIPOS>ATOM
      1 C         144.1694  141.5179  156.8685 C.3     1  UNL1        0.0420
      2 C         143.7091  140.2881  157.5937 C.3     1  UNL1        0.1912
      3 O         143.6241  140.2883  159.0913 O.3     1  UNL1       -0.3500
      4 C         143.1638  139.0586  159.8166 C.3     1  UNL1        0.1145
      5 C         142.7036  137.8289  160.5418 C.3     1  UNL1        0.0463
      6 C         142.6185  137.8291  162.0393 C.3     1  UNL1        0.0746
      7 N         142.9937  139.0590  162.8117 N.3     1  UNL1       -0.2722
      8 C         143.4539  140.2887  162.0865 C.3     1  UNL1        0.0746
      9 C         143.5390  140.2885  160.5889 C.3     1  UNL1        0.0463
     10 C         142.7886  137.8286  159.0442 C.3     1  UNL1        0.1254
     11 N         142.8737  137.8285  157.5466 N.am    1  UNL1       -0.2528
     12 C         143.3340  139.0582  156.8214 C.2     1  UNL1        0.2566
     13 O         143.4190  139.0580  155.3237 O.2     1  UNL1       -0.2719
     14 C         142.4986  136.5986  156.7742 C.ar    1  UNL1        0.0731
     15 C         141.1879  136.5403  156.0470 C.ar    1  UNL1        0.1137
     16 N         140.8128  135.3104  155.2746 N.ar    1  UNL1       -0.2411
     17 C         141.7482  134.1387  155.2295 C.ar    1  UNL1        0.1028
     18 C         143.0589  134.1969  155.9567 C.ar    1  UNL1        0.0918
     19 C         143.4341  135.4268  156.7291 C.ar    1  UNL1        0.0219
     20 C         143.9944  133.0253  155.9115 C.3     1  UNL1        0.4201
     21 F         144.9298  131.8536  155.8663 F       1  UNL1       -0.1658
     22 F         143.4363  132.6312  154.5761 F       1  UNL1       -0.1658
     23 F         144.5524  133.4193  157.2469 F       1  UNL1       -0.1658
     24 C         142.9086  139.0591  164.3093 C.3     1  UNL1        0.0768
     25 C         141.8990  139.9248  165.0031 C.3     1  UNL1        0.0437
     26 C         140.6080  139.3325  165.4852 C.ar    1  UNL1       -0.0208
     27 C         139.8930  139.9429  166.6540 C.ar    1  UNL1       -0.0042
     28 C         138.6020  139.3505  167.1360 C.ar    1  UNL1       -0.0003
     29 C         138.0260  138.1477  166.4493 C.ar    1  UNL1       -0.0000
     30 C         138.7411  137.5373  165.2806 C.ar    1  UNL1       -0.0003
     31 C         140.0320  138.1297  164.7985 C.ar    1  UNL1       -0.0042
@<TRIPOS>BOND
     1     1     2    1
     2     2     3    1
     3     3     4    1
     4     4     5    1
     5     5     6    1
     6     6     7    1
     7     7    24    1
     8    24    25    1
     9    25    26    1
    10    26    27   ar
    11    27    28   ar
    12    28    29   ar
    13    29    30   ar
    14    30    31   ar
    15     7     8    1
    16     8     9    1
    17     4    10    1
    18    10    11    1
    19    11    14    1
    20    14    15   ar
    21    15    16   ar
    22    16    17   ar
    23    17    18   ar
    24    18    20    1
    25    20    21    1
    26    20    22    1
    27    20    23    1
    28    18    19   ar
    29    11    12   am
    30    12    13    2
    31    12     2    1
    32     9     4    1
    33    19    14   ar
    34    31    26   ar
@<TRIPOS>MOLECULE
*****
 31 34 0 0 0
SMALL
GASTEIGER

@<TRIPOS>ATOM
      1 C         140.9225  145.5170  158.6763 C.3     1  UNL1        0.0420
      2 C         141.9464  144.5208  159.1339 C.3     1  UNL1        0.1912
      3 O         142.2228  144.3482  160.5981 O.3     1  UNL1       -0.3500
      4 C         143.2467  143.3520  161.0557 C.3     1  UNL1        0.1145
      5 C         144.2704  142.3559  161.5133 C.3     1  UNL1        0.0463
      6 C         144.5469  142.1833  162.9775 C.3     1  UNL1        0.0746
      7 N         143.7995  143.0069  163.9840 N.3     1  UNL1       -0.2722
      8 C         142.7757  144.0030  163.5264 C.3     1  UNL1        0.0746
      9 C         142.4993  144.1756  162.0623 C.3     1  UNL1        0.0463
     10 C         143.9940  142.5284  160.0492 C.3     1  UNL1        0.1254
     11 N         143.7176  142.7011  158.5850 N.am    1  UNL1       -0.2528
     12 C         142.6938  143.6972  158.1274 C.2     1  UNL1        0.2566
     13 O         142.4173  143.8699  156.6632 O.2     1  UNL1       -0.2719
     14 C         144.4649  141.8775  157.5784 C.ar    1  UNL1        0.0731
     15 C         144.0195  140.4776  157.2754 C.ar    1  UNL1        0.1137
     16 N         144.7669  139.6540  156.2689 N.ar    1  UNL1       -0.2411
     17 C         145.9597  140.2303  155.5653 C.ar    1  UNL1        0.1028
     18 C         146.4052  141.6303  155.8683 C.ar    1  UNL1        0.0918
     19 C         145.6578  142.4539  156.8748 C.ar    1  UNL1        0.0219
     20 C         147.5980  142.2066  155.1647 C.3     1  UNL1        0.4201
     21 F         148.7908  142.7829  154.4612 F       1  UNL1       -0.1658
     22 F         148.4122  142.0467  156.4143 F       1  UNL1       -0.1658
     23 F         146.7837  142.3665  153.9152 F       1  UNL1       -0.1658
     24 C         144.0760  142.8342  165.4482 C.3     1  UNL1        0.0768
     25 C         143.2859  141.8419  166.2488 C.3     1  UNL1        0.0437
     26 C         142.5887  142.2759  167.5040 C.ar    1  UNL1       -0.0208
     27 C         141.1250  142.6024  167.4744 C.ar    1  UNL1       -0.0042
     28 C         140.4278  143.0364  168.7296 C.ar    1  UNL1       -0.0003
     29 C         141.1944  143.1439  170.0144 C.ar    1  UNL1       -0.0000
     30 C         142.6581  142.8174  170.0441 C.ar    1  UNL1       -0.0003
     31 C         143.3552  142.3834  168.7889 C.ar    1  UNL1       -0.0042
@<TRIPOS>BOND
     1     1     2    1
     2     2     3    1
     3     3     4    1
     4     4     5    1
     5     5     6    1
     6     6     7    1
     7     7    24    1
     8    24    25    1
     9    25    26    1
    10    26    27   ar
    11    27    28   ar
    12    28    29   ar
    13    29    30   ar
    14    30    31   ar
    15     7     8    1
    16     8     9    1
    17     4    10    1
    18    10    11    1
    19    11    14    1
    20    14    15   ar
    21    15    16   ar
    22    16    17   ar
    23    17    18   ar
    24    18    20    1
    25    20    21    1
    26    20    22    1
    27    20    23    1
    28    18    19   ar
    29    11    12   am
    30    12    13    2
    31    12     2    1
    32     9     4    1
    33    19    14   ar
    34    31    26   ar
@<TRIPOS>MOLECULE
*****
 31 34 0 0 0
SMALL
GASTEIGER

@<TRIPOS>ATOM
      1 C         144.8403  140.3843  156.0316 C.3     1  UNL1        0.0420
      2 C         143.7449  139.5351  156.6052 C.3     1  UNL1        0.1912
      3 O         142.7278  140.1433  157.5248 O.3     1  UNL1       -0.3500
      4 C         141.6324  139.2941  158.0984 C.3     1  UNL1        0.1145
      5 C         140.5371  138.4449  158.6719 C.3     1  UNL1        0.0463
      6 C         139.5200  139.0531  159.5915 C.3     1  UNL1        0.0746
      7 N         139.5983  140.5105  159.9375 N.3     1  UNL1       -0.2722
      8 C         140.6936  141.3598  159.3639 C.3     1  UNL1        0.0746
      9 C         141.7107  140.7515  158.4444 C.3     1  UNL1        0.0463
     10 C         141.5541  137.8366  157.7524 C.3     1  UNL1        0.1254
     11 N         142.5713  137.2284  156.8328 N.am    1  UNL1       -0.2528
     12 C         143.6666  138.0776  156.2592 C.2     1  UNL1        0.2566
     13 O         144.6837  137.4694  155.3396 O.2     1  UNL1       -0.2719
     14 C         142.4930  135.7710  156.4868 C.ar    1  UNL1        0.0731
     15 C         141.5530  135.3039  155.4153 C.ar    1  UNL1        0.1137
     16 N         141.4747  133.8465  155.0694 N.ar    1  UNL1       -0.2411
     17 C         142.3365  132.8561  155.7949 C.ar    1  UNL1        0.1028
     18 C         143.2766  133.3231  156.8665 C.ar    1  UNL1        0.0918
     19 C         143.3548  134.7805  157.2124 C.ar    1  UNL1        0.0219
     20 C         144.1383  132.3327  157.5920 C.3     1  UNL1        0.4201
     21 F         145.0001  131.3423  158.3175 F       1  UNL1       -0.1658
     22 F         143.4287  131.2075  156.8989 F       1  UNL1       -0.1658
     23 F         144.8479  133.4579  158.2851 F       1  UNL1       -0.1658
     24 C         138.5811  141.1188  160.8571 C.3     1  UNL1        0.0768
     25 C         137.6531  140.2361  161.6378 C.3     1  UNL1        0.0437
     26 C         138.0991  139.6475  162.9435 C.ar    1  UNL1       -0.0208
     27 C         138.5581  138.2208  163.0052 C.ar    1  UNL1       -0.0042
     28 C         139.0041  137.6323  164.3108 C.ar    1  UNL1       -0.0003
     29 C         138.9911  138.4705  165.5547 C.ar    1  UNL1       -0.0000
     30 C         138.5320  139.8972  165.4930 C.ar    1  UNL1       -0.0003
     31 C         138.0861  140.4857  164.1874 C.ar    1  UNL1       -0.0042
@<TRIPOS>BOND
     1     1     2    1
     2     2     3    1
     3     3     4    1
     4     4     5    1
     5     5     6    1
     6     6     7    1
     7     7    24    1
     8    24    25    1
     9    25    26    1
    10    26    27   ar
    11    27    28   ar
    12    28    29   ar
    13    29    30   ar
    14    30    31   ar
    15     7     8    1
    16     8     9    1
    17     4    10    1
    18    10    11    1
    19    11    14    1
    20    14    15   ar
    21    15    16   ar
    22    16    17   ar
    23    17    18   ar
    24    18    20    1
    25    20    21    1
    26    20    22    1
    27    20    23    1
    28    18    19   ar
    29    11    12   am
    30    12    13    2
    31    12     2    1
    32     9     4    1
    33    19    14   ar
    34    31    26   ar
@<TRIPOS>MOLECULE
*****
 31 34 0 0 0
SMALL
GASTEIGER

@<TRIPOS>ATOM
      1 C         137.4101  139.8925  160.3979 C.3     1  UNL1        0.0420
      2 C         138.8649  139.5412  160.2960 C.3     1  UNL1        0.1912
      3 O         139.3703  138.7762  159.1089 O.3     1  UNL1       -0.3500
      4 C         140.8251  138.4249  159.0069 C.3     1  UNL1        0.1145
      5 C         142.2798  138.0736  158.9050 C.3     1  UNL1        0.0463
      6 C         142.7852  137.3087  157.7179 C.3     1  UNL1        0.0746
      7 N         141.8359  136.8949  156.6327 N.3     1  UNL1       -0.2722
      8 C         140.3812  137.2462  156.7346 C.3     1  UNL1        0.0746
      9 C         139.8758  138.0112  157.9217 C.3     1  UNL1        0.0463
     10 C         141.7743  138.8386  160.0922 C.3     1  UNL1        0.1254
     11 N         141.2688  139.6037  161.2793 N.am    1  UNL1       -0.2528
     12 C         139.8141  139.9549  161.3812 C.2     1  UNL1        0.2566
     13 O         139.3086  140.7199  162.5684 O.2     1  UNL1       -0.2719
     14 C         142.2181  140.0174  162.3646 C.ar    1  UNL1        0.0731
     15 C         142.8545  141.3751  162.3269 C.ar    1  UNL1        0.1137
     16 N         143.8037  141.7889  163.4122 N.ar    1  UNL1       -0.2411
     17 C         144.1166  140.8448  164.5350 C.ar    1  UNL1        0.1028
     18 C         143.4802  139.4870  164.5727 C.ar    1  UNL1        0.0918
     19 C         142.5310  139.0732  163.4875 C.ar    1  UNL1        0.0219
     20 C         143.7931  138.5429  165.6955 C.3     1  UNL1        0.4201
     21 F         144.1060  137.5989  166.8184 F       1  UNL1       -0.1658
     22 F         142.3265  138.3687  165.9578 F       1  UNL1       -0.1658
     23 F         145.2597  138.7171  165.4333 F       1  UNL1       -0.1658
     24 C         142.3414  136.1299  155.4455 C.3     1  UNL1        0.0768
     25 C         142.0926  134.6543  155.3428 C.3     1  UNL1        0.0437
     26 C         143.0872  133.6847  155.9093 C.ar    1  UNL1       -0.0208
     27 C         143.7018  133.9402  157.2535 C.ar    1  UNL1       -0.0042
     28 C         144.6963  132.9707  157.8199 C.ar    1  UNL1       -0.0003
     29 C         145.0762  131.7456  157.0420 C.ar    1  UNL1       -0.0000
     30 C         144.4616  131.4901  155.6979 C.ar    1  UNL1       -0.0003
     31 C         143.4671  132.4597  155.1315 C.ar    1  UNL1       -0.0042
@<TRIPOS>BOND
     1     1     2    1
     2     2     3    1
     3     3     4    1
     4     4     5    1
     5     5     6    1
     6     6     7    1
     7     7    24    1
     8    24    25    1
     9    25    26    1
    10    26    27   ar
    11    27    28   ar
    12    28    29   ar
    13    29    30   ar
    14    30    31   ar
    15     7     8    1
    16     8     9    1
    17     4    10    1
    18    10    11    1
    19    11    14    1
    20    14    15   ar
    21    15    16   ar
    22    16    17   ar
    23    17    18   ar
    24    18    20    1
    25    20    21    1
    26    20    22    1
    27    20    23    1
    28    18    19   ar
    29    11    12   am
    30    12    13    2
    31    12     2    1
    32     9     4    1
    33    19    14   ar
    34    31    26   ar
@<TRIPOS>MOLECULE
*****
 31 34 0 0 0
SMALL
GASTEIGER

@<TRIPOS>ATOM
      1 C         141.2353  146.1592  156.8193 C.3     1  UNL1        0.0420
      2 C         140.4297  145.0439  157.4170 C.3     1  UNL1        0.1912
      3 O         139.4346  144.3024  156.5744 O.3     1  UNL1       -0.3500
      4 C         138.6290  143.1872  157.1721 C.3     1  UNL1        0.1145
      5 C         137.8234  142.0719  157.7698 C.3     1  UNL1        0.0463
      6 C         136.8284  141.3304  156.9272 C.3     1  UNL1        0.0746
      7 N         136.6389  141.7042  155.4869 N.3     1  UNL1       -0.2722
      8 C         137.4444  142.8194  154.8892 C.3     1  UNL1        0.0746
      9 C         138.4395  143.5609  155.7318 C.3     1  UNL1        0.0463
     10 C         138.8184  142.8134  158.6124 C.3     1  UNL1        0.1254
     11 N         139.8136  143.5550  159.4550 N.am    1  UNL1       -0.2528
     12 C         140.6191  144.6702  158.8572 C.2     1  UNL1        0.2566
     13 O         141.6143  145.4118  159.6998 O.2     1  UNL1       -0.2719
     14 C         140.0030  143.1813  160.8952 C.ar    1  UNL1        0.0731
     15 C         140.9802  142.1063  161.2689 C.ar    1  UNL1        0.1137
     16 N         141.1697  141.7326  162.7092 N.ar    1  UNL1       -0.2411
     17 C         140.3820  142.4339  163.7758 C.ar    1  UNL1        0.1028
     18 C         139.4048  143.5089  163.4022 C.ar    1  UNL1        0.0918
     19 C         139.2153  143.8826  161.9619 C.ar    1  UNL1        0.0219
     20 C         138.6171  144.2101  164.4689 C.3     1  UNL1        0.4201
     21 F         137.8295  144.9114  165.5355 F       1  UNL1       -0.1658
     22 F         137.4380  144.2905  163.5453 F       1  UNL1       -0.1658
     23 F         139.7963  144.1298  165.3924 F       1  UNL1       -0.1658
     24 C         135.6438  140.9626  154.6443 C.3     1  UNL1        0.0768
     25 C         134.1938  141.3445  154.6853 C.3     1  UNL1        0.0437
     26 C         133.2361  140.5630  155.5350 C.ar    1  UNL1       -0.0208
     27 C         131.8254  141.0420  155.7097 C.ar    1  UNL1       -0.0042
     28 C         130.8678  140.2605  156.5594 C.ar    1  UNL1       -0.0003
     29 C         131.3207  138.9998  157.2344 C.ar    1  UNL1       -0.0000
     30 C         132.7313  138.5207  157.0596 C.ar    1  UNL1       -0.0003
     31 C         133.6890  139.3023  156.2100 C.ar    1  UNL1       -0.0042
@<TRIPOS>BOND
     1     1     2    1
     2     2     3    1
     3     3     4    1
     4     4     5    1
     5     5     6    1
     6     6     7    1
     7     7    24    1
     8    24    25    1
     9    25    26    1
    10    26    27   ar
    11    27    28   ar
    12    28    29   ar
    13    29    30   ar
    14    30    31   ar
    15     7     8    1
    16     8     9    1
    17     4    10    1
    18    10    11    1
    19    11    14    1
    20    14    15   ar
    21    15    16   ar
    22    16    17   ar
    23    17    18   ar
    24    18    20    1
    25    20    21    1
    26    20    22    1
    27    20    23    1
    28    18    19   ar
    29    11    12   am
    30    12    13    2
    31    12     2    1
    32     9     4    1
    33    19    14   ar
    34    31    26   ar
@<TRIPOS>MOLECULE
*****
 31 34 0 0 0
SMALL
GASTEIGER

@<TRIPOS>ATOM
      1 C         144.5782  142.7147  158.2705 C.3     1  UNL1        0.0420
      2 C         143.2439  143.2477  158.7014 C.3     1  UNL1        0.1912
      3 O         142.8714  143.2513  160.1544 O.3     1  UNL1       -0.3500
      4 C         141.5371  143.7843  160.5852 C.3     1  UNL1        0.1145
      5 C         140.2028  144.3174  161.0160 C.3     1  UNL1        0.0463
      6 C         139.8302  144.3209  162.4689 C.3     1  UNL1        0.0746
      7 N         140.7919  143.7914  163.4911 N.3     1  UNL1       -0.2722
      8 C         142.1261  143.2584  163.0603 C.3     1  UNL1        0.0746
      9 C         142.4987  143.2548  161.6074 C.3     1  UNL1        0.0463
     10 C         140.5754  144.3138  159.5630 C.3     1  UNL1        0.1254
     11 N         140.9480  144.3103  158.1100 N.am    1  UNL1       -0.2528
     12 C         142.2823  143.7772  157.6792 C.2     1  UNL1        0.2566
     13 O         142.6549  143.7737  156.2262 O.2     1  UNL1       -0.2719
     14 C         139.9864  144.8398  157.0878 C.ar    1  UNL1        0.0731
     15 C         139.0732  143.8991  156.3591 C.ar    1  UNL1        0.1137
     16 N         138.1115  144.4286  155.3369 N.ar    1  UNL1       -0.2411
     17 C         138.0630  145.8987  155.0435 C.ar    1  UNL1        0.1028
     18 C         138.9762  146.8395  155.7723 C.ar    1  UNL1        0.0918
     19 C         139.9379  146.3100  156.7944 C.ar    1  UNL1        0.0219
     20 C         138.9278  148.3097  155.4789 C.3     1  UNL1        0.4201
     21 F         138.8793  149.7799  155.1855 F       1  UNL1       -0.1658
     22 F         139.2793  148.0355  154.0467 F       1  UNL1       -0.1658
     23 F         138.5762  148.5839  156.9110 F       1  UNL1       -0.1658
     24 C         140.4193  143.7950  164.9441 C.3     1  UNL1        0.0768
     25 C         140.8867  142.6873  165.8410 C.3     1  UNL1        0.0437
     26 C         139.9946  141.5111  166.1077 C.ar    1  UNL1       -0.0208
     27 C         139.1015  140.9860  165.0230 C.ar    1  UNL1       -0.0042
     28 C         138.2095  139.8099  165.2898 C.ar    1  UNL1       -0.0003
     29 C         138.2106  139.1590  166.6412 C.ar    1  UNL1       -0.0000
     30 C         139.1037  139.6842  167.7259 C.ar    1  UNL1       -0.0003
     31 C         139.9957  140.8602  167.4591 C.ar    1  UNL1       -0.0042
@<TRIPOS>BOND
     1     1     2    1
     2     2     3    1
     3     3     4    1
     4     4     5    1
     5     5     6    1
     6     6     7    1
     7     7    24    1
     8    24    25    1
     9    25    26    1
    10    26    27   ar
    11    27    28   ar
    12    28    29   ar
    13    29    30   ar
    14    30    31   ar
    15     7     8    1
    16     8     9    1
    17     4    10    1
    18    10    11    1
    19    11    14    1
    20    14    15   ar
    21    15    16   ar
    22    16    17   ar
    23    17    18   ar
    24    18    20    1
    25    20    21    1
    26    20    22    1
    27    20    23    1
    28    18    19   ar
    29    11    12   am
    30    12    13    2
    31    12     2    1
    32     9     4    1
    33    19    14   ar
    34    31    26   ar
@<TRIPOS>MOLECULE
*****
 31 34 0 0 0
SMALL
GASTEIGER

@<TRIPOS>ATOM
      1 C         137.6047  140.6590  155.7664 C.3     1  UNL1        0.0420
      2 C         138.5097  139.9309  156.7157 C.3     1  UNL1        0.1912
      3 O         138.2417  139.9760  158.1908 O.3     1  UNL1       -0.3500
      4 C         139.1467  139.2479  159.1401 C.3     1  UNL1        0.1145
      5 C         140.0516  138.5199  160.0893 C.3     1  UNL1        0.0463
      6 C         139.7836  138.5649  161.5644 C.3     1  UNL1        0.0746
      7 N         138.6107  139.3380  162.0904 N.3     1  UNL1       -0.2722
      8 C         137.7058  140.0660  161.1412 C.3     1  UNL1        0.0746
      9 C         137.9737  140.0210  159.6661 C.3     1  UNL1        0.0463
     10 C         140.3196  138.4748  158.6141 C.3     1  UNL1        0.1254
     11 N         140.5875  138.4298  157.1389 N.am    1  UNL1       -0.2528
     12 C         139.6826  139.1579  156.1897 C.2     1  UNL1        0.2566
     13 O         139.9505  139.1128  154.7145 O.2     1  UNL1       -0.2719
     14 C         141.7604  137.6568  156.6129 C.ar    1  UNL1        0.0731
     15 C         143.0600  138.3560  156.3443 C.ar    1  UNL1        0.1137
     16 N         144.2329  137.5829  155.8183 N.ar    1  UNL1       -0.2411
     17 C         144.1063  136.1106  155.5610 C.ar    1  UNL1        0.1028
     18 C         142.8067  135.4113  155.8297 C.ar    1  UNL1        0.0918
     19 C         141.6337  136.1844  156.3556 C.ar    1  UNL1        0.0219
     20 C         142.6800  133.9390  155.5723 C.3     1  UNL1        0.4201
     21 F         142.5534  132.4667  155.3150 F       1  UNL1       -0.1658
     22 F         144.1668  133.7885  155.7020 F       1  UNL1       -0.1658
     23 F         141.1933  134.0896  155.4427 F       1  UNL1       -0.1658
     24 C         138.3428  139.3830  163.5656 C.3     1  UNL1        0.0768
     25 C         139.0928  138.4727  164.4923 C.3     1  UNL1        0.0437
     26 C         139.7160  139.0218  165.7414 C.ar    1  UNL1       -0.0208
     27 C         141.2059  139.1689  165.8341 C.ar    1  UNL1       -0.0042
     28 C         141.8290  139.7180  167.0831 C.ar    1  UNL1       -0.0003
     29 C         140.9622  140.1199  168.2395 C.ar    1  UNL1       -0.0000
     30 C         139.4724  139.9728  168.1468 C.ar    1  UNL1       -0.0003
     31 C         138.8493  139.4238  166.8977 C.ar    1  UNL1       -0.0042
@<TRIPOS>BOND
     1     1     2    1
     2     2     3    1
     3     3     4    1
     4     4     5    1
     5     5     6    1
     6     6     7    1
     7     7    24    1
     8    24    25    1
     9    25    26    1
    10    26    27   ar
    11    27    28   ar
    12    28    29   ar
    13    29    30   ar
    14    30    31   ar
    15     7     8    1
    16     8     9    1
    17     4    10    1
    18    10    11    1
    19    11    14    1
    20    14    15   ar
    21    15    16   ar
    22    16    17   ar
    23    17    18   ar
    24    18    20    1
    25    20    21    1
    26    20    22    1
    27    20    23    1
    28    18    19   ar
    29    11    12   am
    30    12    13    2
    31    12     2    1
    32     9     4    1
    33    19    14   ar
    34    31    26   ar
@<TRIPOS>MOLECULE
*****
 31 34 0 0 0
SMALL
GASTEIGER

@<TRIPOS>ATOM
      1 C         137.6187  140.6760  156.3013 C.3     1  UNL1        0.0420
      2 C         138.6095  139.9432  157.1566 C.3     1  UNL1        0.1912
      3 O         138.4600  139.9479  158.6491 O.3     1  UNL1       -0.3500
      4 C         139.4508  139.2151  159.5044 C.3     1  UNL1        0.1145
      5 C         140.4415  138.4824  160.3597 C.3     1  UNL1        0.0463
      6 C         140.2920  138.4871  161.8522 C.3     1  UNL1        0.0746
      7 N         139.1518  139.2245  162.4894 N.3     1  UNL1       -0.2722
      8 C         138.1611  139.9573  161.6342 C.3     1  UNL1        0.0746
      9 C         138.3106  139.9526  160.1417 C.3     1  UNL1        0.0463
     10 C         140.5910  138.4777  158.8672 C.3     1  UNL1        0.1254
     11 N         140.7404  138.4730  157.3746 N.am    1  UNL1       -0.2528
     12 C         139.7497  139.2057  156.5194 C.2     1  UNL1        0.2566
     13 O         139.8992  139.2010  155.0268 O.2     1  UNL1       -0.2719
     14 C         141.8806  137.7355  156.7374 C.ar    1  UNL1        0.0731
     15 C         143.1701  138.4478  156.4548 C.ar    1  UNL1        0.1137
     16 N         144.3103  137.7104  155.8175 N.ar    1  UNL1       -0.2411
     17 C         144.1611  136.2606  155.4629 C.ar    1  UNL1        0.1028
     18 C         142.8716  135.5482  155.7454 C.ar    1  UNL1        0.0918
     19 C         141.7314  136.2857  156.3827 C.ar    1  UNL1        0.0219
     20 C         142.7223  134.0984  155.3908 C.3     1  UNL1        0.4201
     21 F         142.5731  132.6487  155.0361 F       1  UNL1       -0.1658
     22 F         142.7886  134.4481  153.9336 F       1  UNL1       -0.1658
     23 F         142.6560  133.7488  156.8479 F       1  UNL1       -0.1658
     24 C         139.0024  139.2292  163.9820 C.3     1  UNL1        0.0768
     25 C         138.0422  140.1777  164.6366 C.3     1  UNL1        0.0437
     26 C         138.4074  141.6239  164.7954 C.ar    1  UNL1       -0.0208
     27 C         139.5322  142.0179  165.7062 C.ar    1  UNL1       -0.0042
     28 C         139.8972  143.4641  165.8648 C.ar    1  UNL1       -0.0003
     29 C         139.1375  144.5163  165.1127 C.ar    1  UNL1       -0.0000
     30 C         138.0127  144.1223  164.2019 C.ar    1  UNL1       -0.0003
     31 C         137.6476  142.6761  164.0433 C.ar    1  UNL1       -0.0042
@<TRIPOS>BOND
     1     1     2    1
     2     2     3    1
     3     3     4    1
     4     4     5    1
     5     5     6    1
     6     6     7    1
     7     7    24    1
     8    24    25    1
     9    25    26    1
    10    26    27   ar
    11    27    28   ar
    12    28    29   ar
    13    29    30   ar
    14    30    31   ar
    15     7     8    1
    16     8     9    1
    17     4    10    1
    18    10    11    1
    19    11    14    1
    20    14    15   ar
    21    15    16   ar
    22    16    17   ar
    23    17    18   ar
    24    18    20    1
    25    20    21    1
    26    20    22    1
    27    20    23    1
    28    18    19   ar
    29    11    12   am
    30    12    13    2
    31    12     2    1
    32     9     4    1
    33    19    14   ar
    34    31    26   ar
