@<TRIPOS>MOLECULE
*****
 20 22 0 0 0
SMALL
GASTEIGER

@<TRIPOS>ATOM
      1 C         141.1059  140.0789  168.3635 C.3     1  UNL1        0.1400
      2 C         142.0972  140.1150  167.2383 C.ar    1  UNL1        0.0046
      3 C         142.6512  138.8353  166.6855 C.ar    1  UNL1       -0.0019
      4 C         143.6425  138.8714  165.5604 C.ar    1  UNL1       -0.0002
      5 C         144.0797  140.1871  164.9878 C.ar    1  UNL1       -0.0000
      6 C         145.0710  140.2232  163.8627 C.ar    1  UNL1       -0.0000
      7 C         145.5082  141.5389  163.2902 C.ar    1  UNL1       -0.0000
      8 C         144.9541  142.8185  163.8429 C.ar    1  UNL1       -0.0000
      9 C         143.9629  142.7825  164.9681 C.ar    1  UNL1       -0.0000
     10 C         143.5257  141.4668  165.5406 C.ar    1  UNL1       -0.0002
     11 C         142.5344  141.4307  166.6658 C.ar    1  UNL1       -0.0019
     12 C         141.5591  140.3328  169.7707 C.3     1  UNL1        0.0629
     13 C         140.8956  140.8080  171.0293 C.3     1  UNL1        0.0727
     14 N         142.2000  140.6920  171.7607 N.3     1  UNL1       -0.2972
     15 C         142.8635  140.2168  170.5022 C.3     1  UNL1        0.0727
     16 H         142.1952  140.0044  172.5141 H       1  UNL1        0.1233
     17 O         139.6615  139.7888  168.0816 O.3     1  UNL1       -0.3518
     18 C         139.1333  139.9014  166.6822 C.3     1  UNL1        0.1425
     19 C         139.1450  137.8420  165.0982 C.3     1  UNL1        0.0027
     20 C         138.4191  138.7411  166.0545 C.3     1  UNL1        0.0321
@<TRIPOS>BOND
     1    19    20    1
     2    20    18    1
     3    18    17    1
     4    17     1    1
     5     1     2    1
     6     2     3   ar
     7     3     4   ar
     8     4     5   ar
     9     5     6   ar
    10     6     7   ar
    11     7     8   ar
    12     8     9   ar
    13     9    10   ar
    14    10    11   ar
    15     1    12    1
    16    12    13    1
    17    13    14    1
    18    14    15    1
    19    11     2   ar
    20    15    12    1
    21    10     5   ar
    22    14    16    1
@<TRIPOS>MOLECULE
*****
 20 22 0 0 0
SMALL
GASTEIGER

@<TRIPOS>ATOM
      1 C         140.1174  140.5018  168.5310 C.3     1  UNL1        0.1400
      2 C         141.1230  140.8068  167.4605 C.ar    1  UNL1        0.0046
      3 C         141.2047  142.1873  166.8796 C.ar    1  UNL1       -0.0019
      4 C         142.2102  142.4923  165.8092 C.ar    1  UNL1       -0.0002
      5 C         143.1340  141.4167  165.3195 C.ar    1  UNL1       -0.0000
      6 C         144.1395  141.7217  164.2491 C.ar    1  UNL1       -0.0000
      7 C         145.0633  140.6461  163.7595 C.ar    1  UNL1       -0.0000
      8 C         144.9815  139.2655  164.3403 C.ar    1  UNL1       -0.0000
      9 C         143.9761  138.9606  165.4108 C.ar    1  UNL1       -0.0000
     10 C         143.0523  140.0361  165.9004 C.ar    1  UNL1       -0.0002
     11 C         142.0467  139.7312  166.9709 C.ar    1  UNL1       -0.0019
     12 C         140.2261  141.1639  169.8726 C.3     1  UNL1        0.0629
     13 C         140.7924  140.7730  171.2056 C.3     1  UNL1        0.0727
     14 N         140.3799  142.1001  171.7699 N.3     1  UNL1       -0.2972
     15 C         139.8137  142.4910  170.4371 C.3     1  UNL1        0.0727
     16 H         141.1590  142.6819  172.0781 H       1  UNL1        0.1233
     17 O         139.0032  139.5349  168.2599 O.3     1  UNL1       -0.3518
     18 C         138.3660  139.4863  166.9029 C.3     1  UNL1        0.1425
     19 C         139.3112  137.9265  165.0525 C.3     1  UNL1        0.0027
     20 C         138.3168  138.1937  166.1433 C.3     1  UNL1        0.0321
@<TRIPOS>BOND
     1    19    20    1
     2    20    18    1
     3    18    17    1
     4    17     1    1
     5     1     2    1
     6     2     3   ar
     7     3     4   ar
     8     4     5   ar
     9     5     6   ar
    10     6     7   ar
    11     7     8   ar
    12     8     9   ar
    13     9    10   ar
    14    10    11   ar
    15     1    12    1
    16    12    13    1
    17    13    14    1
    18    14    15    1
    19    11     2   ar
    20    15    12    1
    21    10     5   ar
    22    14    16    1
@<TRIPOS>MOLECULE
*****
 20 22 0 0 0
SMALL
GASTEIGER

@<TRIPOS>ATOM
      1 C         137.9443  140.4066  163.4987 C.3     1  UNL1        0.1400
      2 C         138.4610  140.3656  164.9064 C.ar    1  UNL1        0.0046
      3 C         138.0584  139.2469  165.8208 C.ar    1  UNL1       -0.0019
      4 C         138.5750  139.2059  167.2284 C.ar    1  UNL1       -0.0002
      5 C         139.4944  140.2837  167.7216 C.ar    1  UNL1       -0.0000
      6 C         140.0111  140.2427  169.1292 C.ar    1  UNL1       -0.0000
      7 C         140.9304  141.3205  169.6223 C.ar    1  UNL1       -0.0000
      8 C         141.3330  142.4393  168.7078 C.ar    1  UNL1       -0.0000
      9 C         140.8163  142.4803  167.3002 C.ar    1  UNL1       -0.0000
     10 C         139.8970  141.4025  166.8071 C.ar    1  UNL1       -0.0002
     11 C         139.3803  141.4434  165.3995 C.ar    1  UNL1       -0.0019
     12 C         138.2724  139.2948  162.5467 C.3     1  UNL1        0.0629
     13 C         139.2411  138.1495  162.5469 C.3     1  UNL1        0.0727
     14 N         138.7364  137.7225  161.2004 N.3     1  UNL1       -0.2972
     15 C         137.7677  138.8677  161.2003 C.3     1  UNL1        0.0727
     16 H         138.2944  136.8033  161.1937 H       1  UNL1        0.1233
     17 O         137.0995  141.5593  163.0431 O.3     1  UNL1       -0.3518
     18 C         137.7494  142.7936  162.4919 C.3     1  UNL1        0.1425
     19 C         138.9347  144.7386  163.7417 C.3     1  UNL1        0.0027
     20 C         137.6766  144.0837  163.2539 C.3     1  UNL1        0.0321
@<TRIPOS>BOND
     1    19    20    1
     2    20    18    1
     3    18    17    1
     4    17     1    1
     5     1     2    1
     6     2     3   ar
     7     3     4   ar
     8     4     5   ar
     9     5     6   ar
    10     6     7   ar
    11     7     8   ar
    12     8     9   ar
    13     9    10   ar
    14    10    11   ar
    15     1    12    1
    16    12    13    1
    17    13    14    1
    18    14    15    1
    19    11     2   ar
    20    15    12    1
    21    10     5   ar
    22    14    16    1
@<TRIPOS>MOLECULE
*****
 20 22 0 0 0
SMALL
GASTEIGER

@<TRIPOS>ATOM
      1 C         141.3537  140.0186  168.2787 C.3     1  UNL1        0.1400
      2 C         140.4424  140.5604  167.2175 C.ar    1  UNL1        0.0046
      3 C         139.4246  139.6656  166.5745 C.ar    1  UNL1       -0.0019
      4 C         138.5134  140.2074  165.5133 C.ar    1  UNL1       -0.0002
      5 C         138.6200  141.6440  165.0950 C.ar    1  UNL1       -0.0000
      6 C         137.7088  142.1857  164.0339 C.ar    1  UNL1       -0.0000
      7 C         137.8154  143.6223  163.6156 C.ar    1  UNL1       -0.0000
      8 C         138.8332  144.5171  164.2586 C.ar    1  UNL1       -0.0000
      9 C         139.7444  143.9753  165.3198 C.ar    1  UNL1       -0.0000
     10 C         139.6378  142.5388  165.7380 C.ar    1  UNL1       -0.0002
     11 C         140.5490  141.9970  166.7993 C.ar    1  UNL1       -0.0019
     12 C         141.0586  140.2806  169.7259 C.3     1  UNL1        0.0629
     13 C         139.8887  140.0332  170.6316 C.3     1  UNL1        0.0727
     14 N         140.6414  140.6512  171.7725 N.3     1  UNL1       -0.2972
     15 C         141.8112  140.8986  170.8669 C.3     1  UNL1        0.0727
     16 H         140.8372  140.0077  172.5393 H       1  UNL1        0.1233
     17 O         142.5598  139.2148  167.8928 O.3     1  UNL1       -0.3518
     18 C         143.1000  139.2967  166.4959 C.3     1  UNL1        0.1425
     19 C         142.0576  138.4892  164.2573 C.3     1  UNL1        0.0027
     20 C         142.8176  138.1959  165.5168 C.3     1  UNL1        0.0321
@<TRIPOS>BOND
     1    19    20    1
     2    20    18    1
     3    18    17    1
     4    17     1    1
     5     1     2    1
     6     2     3   ar
     7     3     4   ar
     8     4     5   ar
     9     5     6   ar
    10     6     7   ar
    11     7     8   ar
    12     8     9   ar
    13     9    10   ar
    14    10    11   ar
    15     1    12    1
    16    12    13    1
    17    13    14    1
    18    14    15    1
    19    11     2   ar
    20    15    12    1
    21    10     5   ar
    22    14    16    1
@<TRIPOS>MOLECULE
*****
 20 22 0 0 0
SMALL
GASTEIGER

@<TRIPOS>ATOM
      1 C         139.8333  140.2655  167.3416 C.3     1  UNL1        0.1400
      2 C         140.8191  141.1574  166.6465 C.ar    1  UNL1        0.0046
      3 C         142.2879  140.8679  166.7397 C.ar    1  UNL1       -0.0019
      4 C         143.2737  141.7596  166.0447 C.ar    1  UNL1       -0.0002
      5 C         142.7906  142.9409  165.2565 C.ar    1  UNL1       -0.0000
      6 C         143.7763  143.8327  164.5616 C.ar    1  UNL1       -0.0000
      7 C         143.2932  145.0140  163.7734 C.ar    1  UNL1       -0.0000
      8 C         141.8244  145.3035  163.6803 C.ar    1  UNL1       -0.0000
      9 C         140.8386  144.4117  164.3753 C.ar    1  UNL1       -0.0000
     10 C         141.3217  143.2305  165.1634 C.ar    1  UNL1       -0.0002
     11 C         140.3360  142.3386  165.8584 C.ar    1  UNL1       -0.0019
     12 C         139.8833  140.1110  168.8327 C.3     1  UNL1        0.0629
     13 C         140.9417  139.7290  169.8247 C.3     1  UNL1        0.0727
     14 N         139.9539  139.8924  170.9416 N.3     1  UNL1       -0.2972
     15 C         138.8955  140.2744  169.9497 C.3     1  UNL1        0.0727
     16 H         140.1914  140.6320  171.6026 H       1  UNL1        0.1233
     17 O         138.7977  139.5283  166.5454 O.3     1  UNL1       -0.3518
     18 C         139.1434  138.9757  165.1945 C.3     1  UNL1        0.1425
     19 C         141.4249  138.0870  164.3255 C.3     1  UNL1        0.0027
     20 C         140.1432  137.8642  165.0722 C.3     1  UNL1        0.0321
@<TRIPOS>BOND
     1    19    20    1
     2    20    18    1
     3    18    17    1
     4    17     1    1
     5     1     2    1
     6     2     3   ar
     7     3     4   ar
     8     4     5   ar
     9     5     6   ar
    10     6     7   ar
    11     7     8   ar
    12     8     9   ar
    13     9    10   ar
    14    10    11   ar
    15     1    12    1
    16    12    13    1
    17    13    14    1
    18    14    15    1
    19    11     2   ar
    20    15    12    1
    21    10     5   ar
    22    14    16    1
@<TRIPOS>MOLECULE
*****
 20 22 0 0 0
SMALL
GASTEIGER

@<TRIPOS>ATOM
      1 C         142.8942  140.8597  163.9086 C.3     1  UNL1        0.1400
      2 C         142.2427  141.4488  165.1246 C.ar    1  UNL1        0.0046
      3 C         140.8093  141.8873  165.0694 C.ar    1  UNL1       -0.0019
      4 C         140.1578  142.4763  166.2853 C.ar    1  UNL1       -0.0002
      5 C         140.9398  142.6270  167.5565 C.ar    1  UNL1       -0.0000
      6 C         140.2883  143.2160  168.7725 C.ar    1  UNL1       -0.0000
      7 C         141.0702  143.3666  170.0436 C.ar    1  UNL1       -0.0000
      8 C         142.5037  142.9282  170.0988 C.ar    1  UNL1       -0.0000
      9 C         143.1551  142.3391  168.8829 C.ar    1  UNL1       -0.0000
     10 C         142.3732  142.1885  167.6118 C.ar    1  UNL1       -0.0002
     11 C         143.0247  141.5994  166.3957 C.ar    1  UNL1       -0.0019
     12 C         144.2827  141.2777  163.5248 C.3     1  UNL1        0.0629
     13 C         144.8641  142.2516  162.5432 C.3     1  UNL1        0.0727
     14 N         146.2464  141.8688  162.9822 N.3     1  UNL1       -0.2972
     15 C         145.6651  140.8949  163.9637 C.3     1  UNL1        0.0727
     16 H         146.7724  142.6295  163.4122 H       1  UNL1        0.1233
     17 O         142.1571  139.8527  163.0764 O.3     1  UNL1       -0.3518
     18 C         142.2356  138.3946  163.4195 C.3     1  UNL1        0.1425
     19 C         140.1673  137.7574  164.8570 C.3     1  UNL1        0.0027
     20 C         141.6536  137.8951  164.7086 C.3     1  UNL1        0.0321
@<TRIPOS>BOND
     1    19    20    1
     2    20    18    1
     3    18    17    1
     4    17     1    1
     5     1     2    1
     6     2     3   ar
     7     3     4   ar
     8     4     5   ar
     9     5     6   ar
    10     6     7   ar
    11     7     8   ar
    12     8     9   ar
    13     9    10   ar
    14    10    11   ar
    15     1    12    1
    16    12    13    1
    17    13    14    1
    18    14    15    1
    19    11     2   ar
    20    15    12    1
    21    10     5   ar
    22    14    16    1
@<TRIPOS>MOLECULE
*****
 20 22 0 0 0
SMALL
GASTEIGER

@<TRIPOS>ATOM
      1 C         143.7111  142.3614  164.7862 C.3     1  UNL1        0.1400
      2 C         142.7835  142.3785  165.9649 C.ar    1  UNL1        0.0046
      3 C         141.3077  142.5463  165.7554 C.ar    1  UNL1       -0.0019
      4 C         140.3800  142.5634  166.9340 C.ar    1  UNL1       -0.0002
      5 C         140.9281  142.4128  168.3222 C.ar    1  UNL1       -0.0000
      6 C         140.0005  142.4300  169.5008 C.ar    1  UNL1       -0.0000
      7 C         140.5487  142.2794  170.8888 C.ar    1  UNL1       -0.0000
      8 C         142.0244  142.1116  171.0983 C.ar    1  UNL1       -0.0000
      9 C         142.9521  142.0944  169.9197 C.ar    1  UNL1       -0.0000
     10 C         142.4039  142.2450  168.5316 C.ar    1  UNL1       -0.0002
     11 C         143.3316  142.2279  167.3529 C.ar    1  UNL1       -0.0019
     12 C         143.8240  143.5685  163.9030 C.3     1  UNL1        0.0629
     13 C         143.5124  145.0278  164.0563 C.3     1  UNL1        0.0727
     14 N         143.9836  145.2757  162.6540 N.3     1  UNL1       -0.2972
     15 C         144.2952  143.8165  162.5007 C.3     1  UNL1        0.0727
     16 H         144.7994  145.8846  162.5904 H       1  UNL1        0.1233
     17 O         144.5258  141.1371  164.4907 O.3     1  UNL1       -0.3518
     18 C         143.8566  139.8969  163.9768 C.3     1  UNL1        0.1425
     19 C         143.6009  138.4876  166.1444 C.3     1  UNL1        0.0027
     20 C         143.0081  139.0674  164.8944 C.3     1  UNL1        0.0321
@<TRIPOS>BOND
     1    19    20    1
     2    20    18    1
     3    18    17    1
     4    17     1    1
     5     1     2    1
     6     2     3   ar
     7     3     4   ar
     8     4     5   ar
     9     5     6   ar
    10     6     7   ar
    11     7     8   ar
    12     8     9   ar
    13     9    10   ar
    14    10    11   ar
    15     1    12    1
    16    12    13    1
    17    13    14    1
    18    14    15    1
    19    11     2   ar
    20    15    12    1
    21    10     5   ar
    22    14    16    1
@<TRIPOS>MOLECULE
*****
 20 22 0 0 0
SMALL
GASTEIGER

@<TRIPOS>ATOM
      1 C         141.7520  141.6458  167.8378 C.3     1  UNL1        0.1400
      2 C         141.7741  142.4247  166.5561 C.ar    1  UNL1        0.0046
      3 C         143.0552  142.5717  165.7898 C.ar    1  UNL1       -0.0019
      4 C         143.0773  143.3506  164.5081 C.ar    1  UNL1       -0.0002
      5 C         141.8184  143.9826  163.9927 C.ar    1  UNL1       -0.0000
      6 C         141.8405  144.7615  162.7110 C.ar    1  UNL1       -0.0000
      7 C         140.5816  145.3934  162.1956 C.ar    1  UNL1       -0.0000
      8 C         139.3005  145.2465  162.9618 C.ar    1  UNL1       -0.0000
      9 C         139.2783  144.4676  164.2435 C.ar    1  UNL1       -0.0000
     10 C         140.5373  143.8356  164.7589 C.ar    1  UNL1       -0.0002
     11 C         140.5151  143.0567  166.0407 C.ar    1  UNL1       -0.0019
     12 C         142.2834  142.2608  169.0985 C.3     1  UNL1        0.0629
     13 C         143.6084  142.2611  169.8019 C.3     1  UNL1        0.0727
     14 N         143.0350  143.1306  170.8813 N.3     1  UNL1       -0.2972
     15 C         141.7102  143.1303  170.1780 C.3     1  UNL1        0.0727
     16 H         143.4699  144.0507  170.9498 H       1  UNL1        0.1233
     17 O         141.1984  140.2518  167.8589 O.3     1  UNL1       -0.3518
     18 C         139.7163  140.0346  167.9362 C.3     1  UNL1        0.1425
     19 C         137.8189  138.5989  166.8926 C.3     1  UNL1        0.0027
     20 C         138.9649  139.5531  166.7305 C.3     1  UNL1        0.0321
@<TRIPOS>BOND
     1    19    20    1
     2    20    18    1
     3    18    17    1
     4    17     1    1
     5     1     2    1
     6     2     3   ar
     7     3     4   ar
     8     4     5   ar
     9     5     6   ar
    10     6     7   ar
    11     7     8   ar
    12     8     9   ar
    13     9    10   ar
    14    10    11   ar
    15     1    12    1
    16    12    13    1
    17    13    14    1
    18    14    15    1
    19    11     2   ar
    20    15    12    1
    21    10     5   ar
    22    14    16    1
@<TRIPOS>MOLECULE
*****
 20 22 0 0 0
SMALL
GASTEIGER

@<TRIPOS>ATOM
      1 C         142.5742  141.5124  167.8789 C.3     1  UNL1        0.1400
      2 C         142.2708  142.3063  166.6429 C.ar    1  UNL1        0.0046
      3 C         143.3749  142.6688  165.6945 C.ar    1  UNL1       -0.0019
      4 C         143.0716  143.4627  164.4586 C.ar    1  UNL1       -0.0002
      5 C         141.6641  143.8943  164.1710 C.ar    1  UNL1       -0.0000
      6 C         141.3607  144.6882  162.9350 C.ar    1  UNL1       -0.0000
      7 C         139.9533  145.1197  162.6475 C.ar    1  UNL1       -0.0000
      8 C         138.8491  144.7573  163.5959 C.ar    1  UNL1       -0.0000
      9 C         139.1524  143.9633  164.8318 C.ar    1  UNL1       -0.0000
     10 C         140.5599  143.5318  165.1194 C.ar    1  UNL1       -0.0002
     11 C         140.8633  142.7379  166.3554 C.ar    1  UNL1       -0.0019
     12 C         142.8638  142.2173  169.1709 C.3     1  UNL1        0.0629
     13 C         144.1019  142.5073  169.9666 C.3     1  UNL1        0.0727
     14 N         143.2735  143.2143  170.9979 N.3     1  UNL1       -0.2972
     15 C         142.0355  142.9244  170.2023 C.3     1  UNL1        0.0727
     16 H         143.4847  144.2077  171.0922 H       1  UNL1        0.1233
     17 O         142.5879  140.0135  167.8229 O.3     1  UNL1       -0.3518
     18 C         142.4441  139.3109  166.5055 C.3     1  UNL1        0.1425
     19 C         143.9929  139.1953  164.4228 C.3     1  UNL1        0.0027
     20 C         143.6546  138.7547  165.8161 C.3     1  UNL1        0.0321
@<TRIPOS>BOND
     1    19    20    1
     2    20    18    1
     3    18    17    1
     4    17     1    1
     5     1     2    1
     6     2     3   ar
     7     3     4   ar
     8     4     5   ar
     9     5     6   ar
    10     6     7   ar
    11     7     8   ar
    12     8     9   ar
    13     9    10   ar
    14    10    11   ar
    15     1    12    1
    16    12    13    1
    17    13    14    1
    18    14    15    1
    19    11     2   ar
    20    15    12    1
    21    10     5   ar
    22    14    16    1
