@<TRIPOS>MOLECULE
*****
 15 16 0 0 0
SMALL
GASTEIGER

@<TRIPOS>ATOM
      1 O         144.3465  142.8428  169.9471 O.2     1  UNL1       -0.2647
      2 C         143.0438  142.1459  169.6876 C.2     1  UNL1        0.3026
      3 N         142.7362  141.6164  168.3184 N.am    1  UNL1       -0.1769
      4 C         141.4335  140.9195  168.0589 C.2     1  UNL1        0.0568
      5 C         141.1259  140.3900  166.6895 C.3     1  UNL1        0.0716
      6 C         139.8232  139.6932  166.4300 C.2     1  UNL1        0.0105
      7 C         138.8280  139.5258  167.5399 C.2     1  UNL1        0.1468
      8 F         137.5253  138.8290  167.2804 F       1  UNL1       -0.2036
      9 C         139.1356  140.0554  168.9092 C.2     1  UNL1        0.0857
     10 CL        138.1405  139.8880  170.0190 Cl      1  UNL1       -0.0799
     11 C         140.4383  140.7522  169.1687 C.2     1  UNL1        0.0275
     12 C         140.7459  141.2817  170.5379 C.2     1  UNL1        0.0433
     13 C         142.0486  141.9786  170.7974 C.2     1  UNL1        0.1897
     14 O         142.3562  142.5081  172.1668 O.2     1  UNL1       -0.5018
     15 H         141.7346  142.4036  172.8601 H       1  UNL1        0.2924
@<TRIPOS>BOND
     1     1     2    2
     2     2     3    1
     3     3     4    2
     4     4     5    1
     5     5     6    1
     6     6     7    2
     7     7     8    1
     8     7     9    1
     9     9    10    1
    10     9    11    2
    11    11    12    1
    12    12    13    2
    13    13    14    1
    14    13     2    1
    15    11     4    1
    16    14    15    1
@<TRIPOS>MOLECULE
*****
 15 16 0 0 0
SMALL
GASTEIGER

@<TRIPOS>ATOM
      1 O         140.9890  142.1295  171.7678 O.2     1  UNL1       -0.2647
      2 C         140.5639  141.6650  170.4064 C.2     1  UNL1        0.3026
      3 N         140.7950  142.5392  169.2096 N.am    1  UNL1       -0.1769
      4 C         140.3698  142.0747  167.8482 C.2     1  UNL1        0.0568
      5 C         140.6009  142.9490  166.6514 C.3     1  UNL1        0.0716
      6 C         140.1757  142.4845  165.2900 C.2     1  UNL1        0.0105
      7 C         139.5194  141.1457  165.1254 C.2     1  UNL1        0.1468
      8 F         139.0943  140.6812  163.7639 F       1  UNL1       -0.2036
      9 C         139.2884  140.2715  166.3221 C.2     1  UNL1        0.0857
     10 CL        138.6321  138.9328  166.1575 Cl      1  UNL1       -0.0799
     11 C         139.7135  140.7360  167.6836 C.2     1  UNL1        0.0275
     12 C         139.4825  139.8618  168.8803 C.2     1  UNL1        0.0433
     13 C         139.9076  140.3263  170.2418 C.2     1  UNL1        0.1897
     14 O         139.6765  139.4520  171.4386 O.2     1  UNL1       -0.5018
     15 H         139.2666  138.6157  171.3357 H       1  UNL1        0.2924
@<TRIPOS>BOND
     1     1     2    2
     2     2     3    1
     3     3     4    2
     4     4     5    1
     5     5     6    1
     6     6     7    2
     7     7     8    1
     8     7     9    1
     9     9    10    1
    10     9    11    2
    11    11    12    1
    12    12    13    2
    13    13    14    1
    14    13     2    1
    15    11     4    1
    16    14    15    1
@<TRIPOS>MOLECULE
*****
 15 16 0 0 0
SMALL
GASTEIGER

@<TRIPOS>ATOM
      1 O         140.5168  142.2065  172.2434 O.2     1  UNL1       -0.2647
      2 C         140.9206  141.9990  170.8137 C.2     1  UNL1        0.3026
      3 N         140.0617  141.1711  169.9044 N.am    1  UNL1       -0.1769
      4 C         140.4656  140.9636  168.4748 C.2     1  UNL1        0.0568
      5 C         139.6066  140.1357  167.5654 C.3     1  UNL1        0.0716
      6 C         140.0105  139.9281  166.1358 C.2     1  UNL1        0.0105
      7 C         141.2733  140.5485  165.6155 C.2     1  UNL1        0.1468
      8 F         141.6771  140.3409  164.1859 F       1  UNL1       -0.2036
      9 C         142.1322  141.3763  166.5249 C.2     1  UNL1        0.0857
     10 CL        143.3949  141.9966  166.0046 Cl      1  UNL1       -0.0799
     11 C         141.7283  141.5839  167.9545 C.2     1  UNL1        0.0275
     12 C         142.5872  142.4117  168.8638 C.2     1  UNL1        0.0433
     13 C         142.1833  142.6193  170.2935 C.2     1  UNL1        0.1897
     14 O         143.0423  143.4472  171.2028 O.2     1  UNL1       -0.5018
     15 H         143.8311  143.8346  170.8778 H       1  UNL1        0.2924
@<TRIPOS>BOND
     1     1     2    2
     2     2     3    1
     3     3     4    2
     4     4     5    1
     5     5     6    1
     6     6     7    2
     7     7     8    1
     8     7     9    1
     9     9    10    1
    10     9    11    2
    11    11    12    1
    12    12    13    2
    13    13    14    1
    14    13     2    1
    15    11     4    1
    16    14    15    1
@<TRIPOS>MOLECULE
*****
 15 16 0 0 0
SMALL
GASTEIGER

@<TRIPOS>ATOM
      1 O         139.1610  146.5405  161.2569 O.2     1  UNL1       -0.2647
      2 C         139.7404  145.6023  162.2737 C.2     1  UNL1        0.3026
      3 N         141.2110  145.6301  162.5678 N.am    1  UNL1       -0.1769
      4 C         141.7904  144.6918  163.5847 C.2     1  UNL1        0.0568
      5 C         143.2611  144.7197  163.8788 C.3     1  UNL1        0.0716
      6 C         143.8405  143.7815  164.8956 C.2     1  UNL1        0.0105
      7 C         142.9492  142.8153  165.6184 C.2     1  UNL1        0.1468
      8 F         143.5286  141.8770  166.6352 F       1  UNL1       -0.2036
      9 C         141.4786  142.7874  165.3242 C.2     1  UNL1        0.0857
     10 CL        140.5874  141.8213  166.0469 Cl      1  UNL1       -0.0799
     11 C         140.8992  143.7257  164.3074 C.2     1  UNL1        0.0275
     12 C         139.4286  143.6979  164.0132 C.2     1  UNL1        0.0433
     13 C         138.8492  144.6361  162.9964 C.2     1  UNL1        0.1897
     14 O         137.3786  144.6082  162.7023 O.2     1  UNL1       -0.5018
     15 H         136.8219  144.0047  163.1537 H       1  UNL1        0.2924
@<TRIPOS>BOND
     1     1     2    2
     2     2     3    1
     3     3     4    2
     4     4     5    1
     5     5     6    1
     6     6     7    2
     7     7     8    1
     8     7     9    1
     9     9    10    1
    10     9    11    2
    11    11    12    1
    12    12    13    2
    13    13    14    1
    14    13     2    1
    15    11     4    1
    16    14    15    1
@<TRIPOS>MOLECULE
*****
 15 16 0 0 0
SMALL
GASTEIGER

@<TRIPOS>ATOM
      1 O         139.4053  143.1032  171.2735 O.2     1  UNL1       -0.2647
      2 C         140.1936  142.3349  170.2546 C.2     1  UNL1        0.3026
      3 N         140.3907  142.8980  168.8784 N.am    1  UNL1       -0.1769
      4 C         141.1789  142.1296  167.8594 C.2     1  UNL1        0.0568
      5 C         141.3760  142.6928  166.4831 C.3     1  UNL1        0.0716
      6 C         142.1643  141.9245  165.4642 C.2     1  UNL1        0.0105
      7 C         142.7555  140.5930  165.8215 C.2     1  UNL1        0.1468
      8 F         143.5437  139.8246  164.8025 F       1  UNL1       -0.2036
      9 C         142.5584  140.0298  167.1977 C.2     1  UNL1        0.0857
     10 CL        143.1496  138.6984  167.5549 Cl      1  UNL1       -0.0799
     11 C         141.7701  140.7982  168.2166 C.2     1  UNL1        0.0275
     12 C         141.5730  140.2351  169.5929 C.2     1  UNL1        0.0433
     13 C         140.7848  141.0034  170.6118 C.2     1  UNL1        0.1897
     14 O         140.5877  140.4402  171.9881 O.2     1  UNL1       -0.5018
     15 H         140.9570  139.6085  172.2113 H       1  UNL1        0.2924
@<TRIPOS>BOND
     1     1     2    2
     2     2     3    1
     3     3     4    2
     4     4     5    1
     5     5     6    1
     6     6     7    2
     7     7     8    1
     8     7     9    1
     9     9    10    1
    10     9    11    2
    11    11    12    1
    12    12    13    2
    13    13    14    1
    14    13     2    1
    15    11     4    1
    16    14    15    1
@<TRIPOS>MOLECULE
*****
 15 16 0 0 0
SMALL
GASTEIGER

@<TRIPOS>ATOM
      1 O         137.7325  143.2529  161.3457 O.2     1  UNL1       -0.2647
      2 C         138.1026  142.5210  162.6016 C.2     1  UNL1        0.3026
      3 N         138.8922  143.2171  163.6702 N.am    1  UNL1       -0.1769
      4 C         139.2624  142.4852  164.9261 C.2     1  UNL1        0.0568
      5 C         140.0519  143.1813  165.9948 C.3     1  UNL1        0.0716
      6 C         140.4221  142.4494  167.2508 C.2     1  UNL1        0.0105
      7 C         140.0027  141.0214  167.4380 C.2     1  UNL1        0.1468
      8 F         140.3729  140.2895  168.6939 F       1  UNL1       -0.2036
      9 C         139.2132  140.3254  166.3693 C.2     1  UNL1        0.0857
     10 CL        138.7938  138.8975  166.5565 Cl      1  UNL1       -0.0799
     11 C         138.8430  141.0573  165.1134 C.2     1  UNL1        0.0275
     12 C         138.0534  140.3612  164.0447 C.2     1  UNL1        0.0433
     13 C         137.6833  141.0931  162.7888 C.2     1  UNL1        0.1897
     14 O         136.8937  140.3970  161.7201 O.2     1  UNL1       -0.5018
     15 H         136.6317  139.5050  161.8371 H       1  UNL1        0.2924
@<TRIPOS>BOND
     1     1     2    2
     2     2     3    1
     3     3     4    2
     4     4     5    1
     5     5     6    1
     6     6     7    2
     7     7     8    1
     8     7     9    1
     9     9    10    1
    10     9    11    2
    11    11    12    1
    12    12    13    2
    13    13    14    1
    14    13     2    1
    15    11     4    1
    16    14    15    1
@<TRIPOS>MOLECULE
*****
 15 16 0 0 0
SMALL
GASTEIGER

@<TRIPOS>ATOM
      1 O         141.0090  136.9871  162.8492 O.2     1  UNL1       -0.2647
      2 C         141.8986  138.1412  163.2047 C.2     1  UNL1        0.3026
      3 N         141.4701  139.1230  164.2546 N.am    1  UNL1       -0.1769
      4 C         142.3597  140.2772  164.6101 C.2     1  UNL1        0.0568
      5 C         141.9311  141.2589  165.6601 C.3     1  UNL1        0.0716
      6 C         142.8208  142.4131  166.0156 C.2     1  UNL1        0.0105
      7 C         144.1391  142.5855  165.3210 C.2     1  UNL1        0.1468
      8 F         145.0288  143.7397  165.6764 F       1  UNL1       -0.2036
      9 C         144.5677  141.6038  164.2710 C.2     1  UNL1        0.0857
     10 CL        145.8860  141.7762  163.5765 Cl      1  UNL1       -0.0799
     11 C         143.6780  140.4496  163.9156 C.2     1  UNL1        0.0275
     12 C         144.1066  139.4679  162.8656 C.2     1  UNL1        0.0433
     13 C         143.2169  138.3137  162.5102 C.2     1  UNL1        0.1897
     14 O         143.6456  137.3319  161.4602 O.2     1  UNL1       -0.5018
     15 H         144.4691  137.4396  161.0263 H       1  UNL1        0.2924
@<TRIPOS>BOND
     1     1     2    2
     2     2     3    1
     3     3     4    2
     4     4     5    1
     5     5     6    1
     6     6     7    2
     7     7     8    1
     8     7     9    1
     9     9    10    1
    10     9    11    2
    11    11    12    1
    12    12    13    2
    13    13    14    1
    14    13     2    1
    15    11     4    1
    16    14    15    1
@<TRIPOS>MOLECULE
*****
 15 16 0 0 0
SMALL
GASTEIGER

@<TRIPOS>ATOM
      1 O         142.8824  137.9090  162.4289 O.2     1  UNL1       -0.2647
      2 C         141.9467  138.2454  163.5520 C.2     1  UNL1        0.3026
      3 N         142.4715  138.9018  164.7944 N.am    1  UNL1       -0.1769
      4 C         141.5358  139.2381  165.9175 C.2     1  UNL1        0.0568
      5 C         142.0608  139.8946  167.1599 C.3     1  UNL1        0.0716
      6 C         141.1251  140.2309  168.2830 C.2     1  UNL1        0.0105
      7 C         139.6644  139.9108  168.1637 C.2     1  UNL1        0.1468
      8 F         138.7287  140.2471  169.2868 F       1  UNL1       -0.2036
      9 C         139.1396  139.2543  166.9213 C.2     1  UNL1        0.0857
     10 CL        137.6790  138.9342  166.8020 Cl      1  UNL1       -0.0799
     11 C         140.0753  138.9180  165.7982 C.2     1  UNL1        0.0275
     12 C         139.5504  138.2616  164.5558 C.2     1  UNL1        0.0433
     13 C         140.4861  137.9253  163.4327 C.2     1  UNL1        0.1897
     14 O         139.9612  137.2688  162.1903 O.2     1  UNL1       -0.5018
     15 H         139.0488  137.0688  162.1158 H       1  UNL1        0.2924
@<TRIPOS>BOND
     1     1     2    2
     2     2     3    1
     3     3     4    2
     4     4     5    1
     5     5     6    1
     6     6     7    2
     7     7     8    1
     8     7     9    1
     9     9    10    1
    10     9    11    2
    11    11    12    1
    12    12    13    2
    13    13    14    1
    14    13     2    1
    15    11     4    1
    16    14    15    1
@<TRIPOS>MOLECULE
*****
 15 16 0 0 0
SMALL
GASTEIGER

@<TRIPOS>ATOM
      1 O         138.9138  145.7620  161.7037 O.2     1  UNL1       -0.2647
      2 C         139.2682  144.7386  162.7415 C.2     1  UNL1        0.3026
      3 N         138.3927  143.5368  162.9394 N.am    1  UNL1       -0.1769
      4 C         138.7471  142.5134  163.9772 C.2     1  UNL1        0.0568
      5 C         137.8716  141.3116  164.1751 C.3     1  UNL1        0.0716
      6 C         138.2259  140.2882  165.2129 C.2     1  UNL1        0.0105
      7 C         139.4558  140.4667  166.0530 C.2     1  UNL1        0.1468
      8 F         139.8102  139.4433  167.0908 F       1  UNL1       -0.2036
      9 C         140.3313  141.6685  165.8551 C.2     1  UNL1        0.0857
     10 CL        141.5611  141.8470  166.6951 Cl      1  UNL1       -0.0799
     11 C         139.9769  142.6919  164.8172 C.2     1  UNL1        0.0275
     12 C         140.8524  143.8937  164.6194 C.2     1  UNL1        0.0433
     13 C         140.4980  144.9171  163.5815 C.2     1  UNL1        0.1897
     14 O         141.3735  146.1189  163.3837 O.2     1  UNL1       -0.5018
     15 H         142.1418  146.2304  163.9085 H       1  UNL1        0.2924
@<TRIPOS>BOND
     1     1     2    2
     2     2     3    1
     3     3     4    2
     4     4     5    1
     5     5     6    1
     6     6     7    2
     7     7     8    1
     8     7     9    1
     9     9    10    1
    10     9    11    2
    11    11    12    1
    12    12    13    2
    13    13    14    1
    14    13     2    1
    15    11     4    1
    16    14    15    1
