@<TRIPOS>MOLECULE
*****
 24 26 0 0 0
SMALL
GASTEIGER

@<TRIPOS>ATOM
      1 C         138.4834  145.0246  165.7022 C.3     1  UNL1        0.0722
      2 C         139.2088  144.5757  164.4684 C.ar    1  UNL1        0.1251
      3 N         139.1764  145.2537  163.1307 N.ar    1  UNL1       -0.2227
      4 C         140.0415  144.4669  162.1913 C.ar    1  UNL1        0.1360
      5 C         140.6086  143.3027  162.9482 C.ar    1  UNL1        0.0682
      6 C         141.5287  142.2553  162.3950 C.3     1  UNL1        0.0527
      7 N         140.0939  143.3699  164.3556 N.ar    1  UNL1       -0.2946
      8 C         140.4091  142.4014  165.4567 C.ar    1  UNL1        0.0924
      9 C         141.7151  142.4966  166.1884 C.ar    1  UNL1        0.0221
     10 C         142.0302  141.5281  167.2896 C.ar    1  UNL1        0.0313
     11 C         141.0394  140.4643  167.6591 C.ar    1  UNL1        0.1425
     12 F         141.3546  139.4958  168.7603 F       1  UNL1       -0.2041
     13 C         139.7333  140.3690  166.9275 C.ar    1  UNL1        0.0608
     14 C         139.4183  141.3376  165.8263 C.ar    1  UNL1        0.1583
     15 F         138.1122  141.2423  165.0946 F       1  UNL1       -0.2026
     16 C         140.2950  144.7881  160.7481 C.1     1  UNL1       -0.0393
     17 C         140.5485  145.1092  159.3050 C.1     1  UNL1       -0.0581
     18 C         140.8020  145.4304  157.8618 C.ar    1  UNL1        0.0459
     19 C         141.9728  144.8181  157.1517 C.ar    1  UNL1        0.0290
     20 C         142.2263  145.1393  155.7086 C.ar    1  UNL1        0.1005
     21 N         141.3089  146.0727  154.9757 N.ar    1  UNL1       -0.2324
     22 C         140.1381  146.6850  155.6858 C.ar    1  UNL1        0.1390
     23 CL        139.2208  147.6184  154.9528 Cl      1  UNL1       -0.0613
     24 C         139.8846  146.3638  157.1289 C.ar    1  UNL1        0.0390
@<TRIPOS>BOND
     1     1     2    1
     2     2     3   ar
     3     3     4   ar
     4     4    16    1
     5    16    17    3
     6    17    18    1
     7    18    19   ar
     8    19    20   ar
     9    20    21   ar
    10    21    22   ar
    11    22    23    1
    12    22    24   ar
    13     4     5   ar
    14     5     6    1
    15     5     7   ar
    16     7     8    1
    17     8     9   ar
    18     9    10   ar
    19    10    11   ar
    20    11    12    1
    21    11    13   ar
    22    13    14   ar
    23    14    15    1
    24     7     2   ar
    25    14     8   ar
    26    24    18   ar
@<TRIPOS>MOLECULE
*****
 24 26 0 0 0
SMALL
GASTEIGER

@<TRIPOS>ATOM
      1 C         138.8927  138.6854  164.6782 C.3     1  UNL1        0.0722
      2 C         139.5992  139.0921  163.4191 C.ar    1  UNL1        0.1251
      3 N         140.1525  138.1633  162.3792 N.ar    1  UNL1       -0.2227
      4 C         140.7718  138.9961  161.2962 C.ar    1  UNL1        0.1360
      5 C         140.6012  140.4396  161.6667 C.ar    1  UNL1        0.0682
      6 C         141.0725  141.6170  160.8657 C.3     1  UNL1        0.0527
      7 N         139.8765  140.4989  162.9787 N.ar    1  UNL1       -0.2946
      8 C         139.4960  141.7461  163.7201 C.ar    1  UNL1        0.0924
      9 C         140.5357  142.5115  164.4838 C.ar    1  UNL1        0.0221
     10 C         140.1552  143.7586  165.2251 C.ar    1  UNL1        0.0313
     11 C         138.7349  144.2405  165.2029 C.ar    1  UNL1        0.1425
     12 F         138.3543  145.4877  165.9443 F       1  UNL1       -0.2041
     13 C         137.6950  143.4751  164.4392 C.ar    1  UNL1        0.0608
     14 C         138.0757  142.2279  163.6978 C.ar    1  UNL1        0.1583
     15 F         137.0359  141.4626  162.9341 F       1  UNL1       -0.2026
     16 C         141.4436  138.4766  160.0598 C.1     1  UNL1       -0.0393
     17 C         142.1155  137.9572  158.8234 C.1     1  UNL1       -0.0581
     18 C         142.7874  137.4377  157.5869 C.ar    1  UNL1        0.0459
     19 C         143.2575  138.3935  156.5309 C.ar    1  UNL1        0.0290
     20 C         143.9294  137.8740  155.2945 C.ar    1  UNL1        0.1005
     21 N         144.1311  136.3986  155.1141 N.ar    1  UNL1       -0.2324
     22 C         143.6609  135.4427  156.1702 C.ar    1  UNL1        0.1390
     23 CL        143.8626  133.9673  155.9898 Cl      1  UNL1       -0.0613
     24 C         142.9891  135.9623  157.4066 C.ar    1  UNL1        0.0390
@<TRIPOS>BOND
     1     1     2    1
     2     2     3   ar
     3     3     4   ar
     4     4    16    1
     5    16    17    3
     6    17    18    1
     7    18    19   ar
     8    19    20   ar
     9    20    21   ar
    10    21    22   ar
    11    22    23    1
    12    22    24   ar
    13     4     5   ar
    14     5     6    1
    15     5     7   ar
    16     7     8    1
    17     8     9   ar
    18     9    10   ar
    19    10    11   ar
    20    11    12    1
    21    11    13   ar
    22    13    14   ar
    23    14    15    1
    24     7     2   ar
    25    14     8   ar
    26    24    18   ar
@<TRIPOS>MOLECULE
*****
 24 26 0 0 0
SMALL
GASTEIGER

@<TRIPOS>ATOM
      1 C         140.9934  137.3033  163.0763 C.3     1  UNL1        0.0722
      2 C         140.0786  138.3325  162.4814 C.ar    1  UNL1        0.1251
      3 N         139.8106  138.5342  161.0193 N.ar    1  UNL1       -0.2227
      4 C         138.8376  139.6671  160.8785 C.ar    1  UNL1        0.1360
      5 C         138.5043  140.1656  162.2534 C.ar    1  UNL1        0.0682
      6 C         137.5684  141.2913  162.5802 C.3     1  UNL1        0.0527
      7 N         139.2713  139.3408  163.2441 N.ar    1  UNL1       -0.2946
      8 C         139.2369  139.4969  164.7354 C.ar    1  UNL1        0.0924
      9 C         138.1915  138.7833  165.5404 C.ar    1  UNL1        0.0221
     10 C         138.1572  138.9394  167.0318 C.ar    1  UNL1        0.0313
     11 C         139.1683  139.8090  167.7184 C.ar    1  UNL1        0.1425
     12 F         139.1340  139.9651  169.2099 F       1  UNL1       -0.2041
     13 C         140.2138  140.5226  166.9135 C.ar    1  UNL1        0.0608
     14 C         140.2480  140.3665  165.4220 C.ar    1  UNL1        0.1583
     15 F         141.2935  141.0801  164.6171 F       1  UNL1       -0.2026
     16 C         138.2935  140.2068  159.5890 C.1     1  UNL1       -0.0393
     17 C         137.7493  140.7464  158.2995 C.1     1  UNL1       -0.0581
     18 C         137.2052  141.2861  157.0100 C.ar    1  UNL1        0.0459
     19 C         137.9931  142.2939  156.2269 C.ar    1  UNL1        0.0290
     20 C         137.4490  142.8335  154.9374 C.ar    1  UNL1        0.1005
     21 N         136.1169  142.3653  154.4312 N.ar    1  UNL1       -0.2324
     22 C         135.3290  141.3574  155.2143 C.ar    1  UNL1        0.1390
     23 CL        133.9969  140.8892  154.7080 Cl      1  UNL1       -0.0613
     24 C         135.8731  140.8178  156.5038 C.ar    1  UNL1        0.0390
@<TRIPOS>BOND
     1     1     2    1
     2     2     3   ar
     3     3     4   ar
     4     4    16    1
     5    16    17    3
     6    17    18    1
     7    18    19   ar
     8    19    20   ar
     9    20    21   ar
    10    21    22   ar
    11    22    23    1
    12    22    24   ar
    13     4     5   ar
    14     5     6    1
    15     5     7   ar
    16     7     8    1
    17     8     9   ar
    18     9    10   ar
    19    10    11   ar
    20    11    12    1
    21    11    13   ar
    22    13    14   ar
    23    14    15    1
    24     7     2   ar
    25    14     8   ar
    26    24    18   ar
@<TRIPOS>MOLECULE
*****
 24 26 0 0 0
SMALL
GASTEIGER

@<TRIPOS>ATOM
      1 C         138.5182  144.8955  165.4002 C.3     1  UNL1        0.0722
      2 C         139.2567  144.5025  164.1551 C.ar    1  UNL1        0.1251
      3 N         139.1722  145.1915  162.8253 N.ar    1  UNL1       -0.2227
      4 C         140.0726  144.4664  161.8696 C.ar    1  UNL1        0.1360
      5 C         140.7136  143.3293  162.6086 C.ar    1  UNL1        0.0682
      6 C         141.6878  142.3431  162.0356 C.3     1  UNL1        0.0527
      7 N         140.2094  143.3516  164.0211 N.ar    1  UNL1       -0.2946
      8 C         140.5908  142.3917  165.1086 C.ar    1  UNL1        0.0924
      9 C         139.5967  141.3816  165.6003 C.ar    1  UNL1        0.0221
     10 C         139.9782  140.4217  166.6878 C.ar    1  UNL1        0.0313
     11 C         141.3538  140.4716  167.2839 C.ar    1  UNL1        0.1425
     12 F         141.7352  139.5116  168.3715 F       1  UNL1       -0.2041
     13 C         142.3479  141.4817  166.7923 C.ar    1  UNL1        0.0608
     14 C         141.9664  142.4416  165.7047 C.ar    1  UNL1        0.1583
     15 F         142.9606  143.4517  165.2131 F       1  UNL1       -0.2026
     16 C         140.2932  144.8169  160.4278 C.1     1  UNL1       -0.0393
     17 C         140.5139  145.1673  158.9861 C.1     1  UNL1       -0.0581
     18 C         140.7345  145.5179  157.5444 C.ar    1  UNL1        0.0459
     19 C         141.8555  144.8782  156.7801 C.ar    1  UNL1        0.0290
     20 C         142.0761  145.2287  155.3385 C.ar    1  UNL1        0.1005
     21 N         141.1757  146.2189  154.6611 N.ar    1  UNL1       -0.2324
     22 C         140.0547  146.8586  155.4254 C.ar    1  UNL1        0.1390
     23 CL        139.1543  147.8488  154.7480 Cl      1  UNL1       -0.0613
     24 C         139.8341  146.5081  156.8670 C.ar    1  UNL1        0.0390
@<TRIPOS>BOND
     1     1     2    1
     2     2     3   ar
     3     3     4   ar
     4     4    16    1
     5    16    17    3
     6    17    18    1
     7    18    19   ar
     8    19    20   ar
     9    20    21   ar
    10    21    22   ar
    11    22    23    1
    12    22    24   ar
    13     4     5   ar
    14     5     6    1
    15     5     7   ar
    16     7     8    1
    17     8     9   ar
    18     9    10   ar
    19    10    11   ar
    20    11    12    1
    21    11    13   ar
    22    13    14   ar
    23    14    15    1
    24     7     2   ar
    25    14     8   ar
    26    24    18   ar
@<TRIPOS>MOLECULE
*****
 24 26 0 0 0
SMALL
GASTEIGER

@<TRIPOS>ATOM
      1 C         139.6286  146.3245  161.7179 C.3     1  UNL1        0.0722
      2 C         139.8581  145.0704  162.5082 C.ar    1  UNL1        0.1251
      3 N         140.0440  144.9864  163.9943 N.ar    1  UNL1       -0.2227
      4 C         140.2428  143.5442  164.3557 C.ar    1  UNL1        0.1360
      5 C         140.1799  142.7369  163.0930 C.ar    1  UNL1        0.0682
      6 C         140.3286  141.2479  162.9902 C.3     1  UNL1        0.0527
      7 N         139.9421  143.6802  161.9512 N.ar    1  UNL1       -0.2946
      8 C         139.8114  143.3000  160.5061 C.ar    1  UNL1        0.0924
      9 C         138.5588  142.6363  160.0155 C.ar    1  UNL1        0.0221
     10 C         138.4281  142.2561  158.5705 C.ar    1  UNL1        0.0313
     11 C         139.5498  142.5395  157.6159 C.ar    1  UNL1        0.1425
     12 F         139.4190  142.1593  156.1708 F       1  UNL1       -0.2041
     13 C         140.8024  143.2033  158.1064 C.ar    1  UNL1        0.0608
     14 C         140.9331  143.5835  159.5515 C.ar    1  UNL1        0.1583
     15 F         142.1858  144.2472  160.0421 F       1  UNL1       -0.2026
     16 C         140.4655  143.0041  165.7373 C.1     1  UNL1       -0.0393
     17 C         140.6882  142.4640  167.1188 C.1     1  UNL1       -0.0581
     18 C         140.9109  141.9239  168.5004 C.ar    1  UNL1        0.0459
     19 C         140.4429  142.7020  169.6943 C.ar    1  UNL1        0.0290
     20 C         140.6656  142.1620  171.0759 C.ar    1  UNL1        0.1005
     21 N         141.3564  140.8438  171.2635 N.ar    1  UNL1       -0.2324
     22 C         141.8244  140.0656  170.0696 C.ar    1  UNL1        0.1390
     23 CL        142.5152  138.7474  170.2572 Cl      1  UNL1       -0.0613
     24 C         141.6017  140.6057  168.6881 C.ar    1  UNL1        0.0390
@<TRIPOS>BOND
     1     1     2    1
     2     2     3   ar
     3     3     4   ar
     4     4    16    1
     5    16    17    3
     6    17    18    1
     7    18    19   ar
     8    19    20   ar
     9    20    21   ar
    10    21    22   ar
    11    22    23    1
    12    22    24   ar
    13     4     5   ar
    14     5     6    1
    15     5     7   ar
    16     7     8    1
    17     8     9   ar
    18     9    10   ar
    19    10    11   ar
    20    11    12    1
    21    11    13   ar
    22    13    14   ar
    23    14    15    1
    24     7     2   ar
    25    14     8   ar
    26    24    18   ar
@<TRIPOS>MOLECULE
*****
 24 26 0 0 0
SMALL
GASTEIGER

@<TRIPOS>ATOM
      1 C         145.4159  141.2980  163.4334 C.3     1  UNL1        0.0722
      2 C         144.4943  140.3000  162.7973 C.ar    1  UNL1        0.1251
      3 N         144.4424  139.9522  161.3390 N.ar    1  UNL1       -0.2227
      4 C         143.3788  138.9118  161.1483 C.ar    1  UNL1        0.1360
      5 C         142.7734  138.6166  162.4885 C.ar    1  UNL1        0.0682
      6 C         141.6720  137.6357  162.7616 C.3     1  UNL1        0.0527
      7 N         143.4628  139.4745  163.5077 N.ar    1  UNL1       -0.2946
      8 C         143.1718  139.5021  164.9789 C.ar    1  UNL1        0.0924
      9 C         143.6410  138.3805  165.8575 C.ar    1  UNL1        0.0221
     10 C         143.3500  138.4081  167.3286 C.ar    1  UNL1        0.0313
     11 C         142.5898  139.5573  167.9214 C.ar    1  UNL1        0.1425
     12 F         142.2988  139.5849  169.3926 F       1  UNL1       -0.2041
     13 C         142.1205  140.6790  167.0428 C.ar    1  UNL1        0.0608
     14 C         142.4116  140.6513  165.5716 C.ar    1  UNL1        0.1583
     15 F         141.9423  141.7730  164.6931 F       1  UNL1       -0.2026
     16 C         142.9891  138.2780  159.8458 C.1     1  UNL1       -0.0393
     17 C         142.5994  137.6441  158.5434 C.1     1  UNL1       -0.0581
     18 C         142.2097  137.0103  157.2409 C.ar    1  UNL1        0.0459
     19 C         143.1805  136.1248  156.5176 C.ar    1  UNL1        0.0290
     20 C         142.7908  135.4909  155.2152 C.ar    1  UNL1        0.1005
     21 N         141.4302  135.7426  154.6361 N.ar    1  UNL1       -0.2324
     22 C         140.4593  136.6281  155.3594 C.ar    1  UNL1        0.1390
     23 CL        139.0987  136.8798  154.7803 Cl      1  UNL1       -0.0613
     24 C         140.8490  137.2620  156.6618 C.ar    1  UNL1        0.0390
@<TRIPOS>BOND
     1     1     2    1
     2     2     3   ar
     3     3     4   ar
     4     4    16    1
     5    16    17    3
     6    17    18    1
     7    18    19   ar
     8    19    20   ar
     9    20    21   ar
    10    21    22   ar
    11    22    23    1
    12    22    24   ar
    13     4     5   ar
    14     5     6    1
    15     5     7   ar
    16     7     8    1
    17     8     9   ar
    18     9    10   ar
    19    10    11   ar
    20    11    12    1
    21    11    13   ar
    22    13    14   ar
    23    14    15    1
    24     7     2   ar
    25    14     8   ar
    26    24    18   ar
@<TRIPOS>MOLECULE
*****
 24 26 0 0 0
SMALL
GASTEIGER

@<TRIPOS>ATOM
      1 C         138.5995  144.3676  164.2855 C.3     1  UNL1        0.0722
      2 C         139.0361  143.8349  162.9530 C.ar    1  UNL1        0.1251
      3 N         138.1422  143.5424  161.7844 N.ar    1  UNL1       -0.2227
      4 C         138.9970  143.0279  160.6643 C.ar    1  UNL1        0.1360
      5 C         140.4192  143.0024  161.1406 C.ar    1  UNL1        0.0682
      6 C         141.6083  142.5565  160.3424 C.3     1  UNL1        0.0527
      7 N         140.4434  143.5012  162.5550 N.ar    1  UNL1       -0.2946
      8 C         141.6609  143.6416  163.4196 C.ar    1  UNL1        0.0924
      9 C         142.5497  144.8412  163.2746 C.ar    1  UNL1        0.0221
     10 C         143.7673  144.9816  164.1392 C.ar    1  UNL1        0.0313
     11 C         144.0962  143.9223  165.1490 C.ar    1  UNL1        0.1425
     12 F         145.3139  144.0627  166.0137 F       1  UNL1       -0.2041
     13 C         143.2075  142.7226  165.2942 C.ar    1  UNL1        0.0608
     14 C         141.9899  142.5823  164.4294 C.ar    1  UNL1        0.1583
     15 F         141.1012  141.3826  164.5746 F       1  UNL1       -0.2026
     16 C         138.5143  142.6119  159.3064 C.1     1  UNL1       -0.0393
     17 C         138.0316  142.1960  157.9485 C.1     1  UNL1       -0.0581
     18 C         137.5489  141.7800  156.5905 C.ar    1  UNL1        0.0459
     19 C         138.2885  142.2235  155.3632 C.ar    1  UNL1        0.0290
     20 C         137.8058  141.8075  154.0054 C.ar    1  UNL1        0.1005
     21 N         136.5835  140.9480  153.8747 N.ar    1  UNL1       -0.2324
     22 C         135.8439  140.5044  155.1020 C.ar    1  UNL1        0.1390
     23 CL        134.6215  139.6449  154.9713 Cl      1  UNL1       -0.0613
     24 C         136.3266  140.9204  156.4599 C.ar    1  UNL1        0.0390
@<TRIPOS>BOND
     1     1     2    1
     2     2     3   ar
     3     3     4   ar
     4     4    16    1
     5    16    17    3
     6    17    18    1
     7    18    19   ar
     8    19    20   ar
     9    20    21   ar
    10    21    22   ar
    11    22    23    1
    12    22    24   ar
    13     4     5   ar
    14     5     6    1
    15     5     7   ar
    16     7     8    1
    17     8     9   ar
    18     9    10   ar
    19    10    11   ar
    20    11    12    1
    21    11    13   ar
    22    13    14   ar
    23    14    15    1
    24     7     2   ar
    25    14     8   ar
    26    24    18   ar
@<TRIPOS>MOLECULE
*****
 24 26 0 0 0
SMALL
GASTEIGER

@<TRIPOS>ATOM
      1 C         137.8625  138.6405  166.6154 C.3     1  UNL1        0.0722
      2 C         138.5832  139.6147  165.7313 C.ar    1  UNL1        0.1251
      3 N         138.2228  139.9538  164.3152 N.ar    1  UNL1       -0.2227
      4 C         139.2077  140.9695  163.8169 C.ar    1  UNL1        0.1360
      5 C         140.1767  141.2582  164.9249 C.ar    1  UNL1        0.0682
      6 C         141.3293  142.2160  164.8608 C.3     1  UNL1        0.0527
      7 N         139.7908  140.4209  166.1081 N.ar    1  UNL1       -0.2946
      8 C         140.4897  140.3944  167.4349 C.ar    1  UNL1        0.0924
      9 C         139.8664  141.0627  168.6245 C.ar    1  UNL1        0.0221
     10 C         140.5653  141.0362  169.9514 C.ar    1  UNL1        0.0313
     11 C         141.8875  140.3414  170.0889 C.ar    1  UNL1        0.1425
     12 F         142.5864  140.3149  171.4159 F       1  UNL1       -0.2041
     13 C         142.5109  139.6730  168.8994 C.ar    1  UNL1        0.0608
     14 C         141.8119  139.6995  167.5725 C.ar    1  UNL1        0.1583
     15 F         142.4352  139.0312  166.3830 F       1  UNL1       -0.2026
     16 C         139.2212  141.5880  162.4503 C.1     1  UNL1       -0.0393
     17 C         139.2345  142.2065  161.0838 C.1     1  UNL1       -0.0581
     18 C         139.2480  142.8249  159.7173 C.ar    1  UNL1        0.0459
     19 C         138.4090  142.2390  158.6206 C.ar    1  UNL1        0.0290
     20 C         138.4225  142.8575  157.2541 C.ar    1  UNL1        0.1005
     21 N         139.2749  144.0619  156.9844 N.ar    1  UNL1       -0.2324
     22 C         140.1139  144.6478  158.0811 C.ar    1  UNL1        0.1390
     23 CL        140.9663  145.8522  157.8113 Cl      1  UNL1       -0.0613
     24 C         140.1004  144.0293  159.4475 C.ar    1  UNL1        0.0390
@<TRIPOS>BOND
     1     1     2    1
     2     2     3   ar
     3     3     4   ar
     4     4    16    1
     5    16    17    3
     6    17    18    1
     7    18    19   ar
     8    19    20   ar
     9    20    21   ar
    10    21    22   ar
    11    22    23    1
    12    22    24   ar
    13     4     5   ar
    14     5     6    1
    15     5     7   ar
    16     7     8    1
    17     8     9   ar
    18     9    10   ar
    19    10    11   ar
    20    11    12    1
    21    11    13   ar
    22    13    14   ar
    23    14    15    1
    24     7     2   ar
    25    14     8   ar
    26    24    18   ar
@<TRIPOS>MOLECULE
*****
 24 26 0 0 0
SMALL
GASTEIGER

@<TRIPOS>ATOM
      1 C         144.0935  142.8159  164.3385 C.3     1  UNL1        0.0722
      2 C         143.8159  142.8361  162.8646 C.ar    1  UNL1        0.1251
      3 N         144.8191  142.5979  161.7751 N.ar    1  UNL1       -0.2227
      4 C         144.1095  142.7125  160.4585 C.ar    1  UNL1        0.1360
      5 C         142.6678  143.0215  160.7343 C.ar    1  UNL1        0.0682
      6 C         141.5959  143.2194  159.7039 C.3     1  UNL1        0.0527
      7 N         142.4863  143.0979  162.2213 N.ar    1  UNL1       -0.2946
      8 C         141.2010  143.3855  162.9390 C.ar    1  UNL1        0.0924
      9 C         140.1173  142.3493  162.9811 C.ar    1  UNL1        0.0221
     10 C         138.8320  142.6369  163.6988 C.ar    1  UNL1        0.0313
     11 C         138.6303  143.9608  164.3744 C.ar    1  UNL1        0.1425
     12 F         137.3449  144.2485  165.0922 F       1  UNL1       -0.2041
     13 C         139.7140  144.9972  164.3324 C.ar    1  UNL1        0.0608
     14 C         140.9993  144.7094  163.6146 C.ar    1  UNL1        0.1583
     15 F         142.0830  145.7458  163.5726 F       1  UNL1       -0.2026
     16 C         144.7324  142.5472  159.1039 C.1     1  UNL1       -0.0393
     17 C         145.3551  142.3819  157.7494 C.1     1  UNL1       -0.0581
     18 C         145.9780  142.2165  156.3948 C.ar    1  UNL1        0.0459
     19 C         145.1079  142.0905  155.1796 C.ar    1  UNL1        0.0290
     20 C         145.7307  141.9252  153.8251 C.ar    1  UNL1        0.1005
     21 N         147.2237  141.8859  153.6859 N.ar    1  UNL1       -0.2324
     22 C         148.0939  142.0119  154.9012 C.ar    1  UNL1        0.1390
     23 CL        149.5869  141.9725  154.7620 Cl      1  UNL1       -0.0613
     24 C         147.4710  142.1772  156.2556 C.ar    1  UNL1        0.0390
@<TRIPOS>BOND
     1     1     2    1
     2     2     3   ar
     3     3     4   ar
     4     4    16    1
     5    16    17    3
     6    17    18    1
     7    18    19   ar
     8    19    20   ar
     9    20    21   ar
    10    21    22   ar
    11    22    23    1
    12    22    24   ar
    13     4     5   ar
    14     5     6    1
    15     5     7   ar
    16     7     8    1
    17     8     9   ar
    18     9    10   ar
    19    10    11   ar
    20    11    12    1
    21    11    13   ar
    22    13    14   ar
    23    14    15    1
    24     7     2   ar
    25    14     8   ar
    26    24    18   ar
