@<TRIPOS>MOLECULE
*****
 38 42 0 0 0
SMALL
GASTEIGER

@<TRIPOS>ATOM
      1 C         139.0683  138.8620  162.4853 C.ar    1  UNL1        0.0104
      2 C         139.7277  138.2202  161.3007 C.ar    1  UNL1        0.0078
      3 C         139.9454  139.0101  160.0442 C.ar    1  UNL1        0.1095
      4 C         139.5036  140.4418  159.9723 C.ar    1  UNL1        0.2691
      5 O         139.7212  141.2316  158.7159 O.2     1  UNL1       -0.2665
      6 N         138.8442  141.0836  161.1570 N.ar    1  UNL1       -0.2733
      7 C         138.4024  142.5152  161.0851 C.ar    1  UNL1        0.0829
      8 C         137.7430  143.1570  162.2697 C.ar    1  UNL1        0.0191
      9 C         137.5254  142.3671  163.5261 C.ar    1  UNL1        0.0030
     10 C         137.9671  140.9354  163.5980 C.ar    1  UNL1        0.0174
     11 C         138.6265  140.2937  162.4134 C.ar    1  UNL1        0.0642
     12 C         140.6048  138.3683  158.8596 C.2     1  UNL1        0.2505
     13 O         139.7750  137.9045  157.6992 O.2     1  UNL1       -0.2700
     14 N         142.0940  138.1903  158.8353 N.am    1  UNL1       -0.3000
     15 H         142.6386  138.4946  159.5969 H       1  UNL1        0.1498
     16 C         142.7533  137.5485  157.6507 C.3     1  UNL1        0.0986
     17 C         142.8451  136.0539  157.5618 C.3     1  UNL1        0.0220
     18 C         143.5044  135.4121  156.3772 C.3     1  UNL1        0.0019
     19 C         144.0721  136.2648  155.2815 C.3     1  UNL1        0.0026
     20 C         143.9804  137.7593  155.3704 C.3     1  UNL1        0.0309
     21 C         143.3210  138.4012  156.5550 C.3     1  UNL1        0.1283
     22 O         143.2293  139.8957  156.6438 O.3     1  UNL1       -0.3828
     23 H         143.6414  140.2921  155.8603 H       1  UNL1        0.2104
     24 C         138.8507  138.0721  163.7417 C.3     1  UNL1        0.1006
     25 C         139.8928  139.8649  167.7354 C.3     1  UNL1        0.1170
     26 C         140.9410  139.7492  166.6688 C.3     1  UNL1        0.0371
     27 C         140.5937  139.1516  165.3376 C.3     1  UNL1        0.0738
     28 N         139.1980  138.6697  165.0729 N.3     1  UNL1       -0.2688
     29 C         138.1498  138.7854  166.1396 C.3     1  UNL1        0.0738
     30 C         138.4972  139.3830  167.4709 C.3     1  UNL1        0.0371
     31 C         141.0658  140.4586  168.4575 C.ar    1  UNL1        0.0716
     32 C         141.4736  141.8766  168.1873 C.ar    1  UNL1        0.0157
     33 C         142.6466  142.4703  168.9094 C.ar    1  UNL1        0.0028
     34 C         143.4119  141.6461  169.9017 C.ar    1  UNL1        0.0207
     35 C         143.0042  140.2280  170.1720 C.ar    1  UNL1        0.0985
     36 N         141.8312  139.6343  169.4499 N.ar    1  UNL1       -0.2472
     37 N         138.6110  140.5087  170.3704 N.1     1  UNL1       -0.1955
     38 C         139.2519  140.1868  169.0528 C.1     1  UNL1        0.0768
@<TRIPOS>BOND
     1    37    38    3
     2    38    25    1
     3    25    31    1
     4    31    32   ar
     5    32    33   ar
     6    33    34   ar
     7    34    35   ar
     8    35    36   ar
     9    25    26    1
    10    26    27    1
    11    27    28    1
    12    28    24    1
    13    24     1    1
    14     1     2   ar
    15     2     3   ar
    16     3    12    1
    17    12    13    2
    18    12    14   am
    19    16    14    1
    20    16    17    1
    21    17    18    1
    22    18    19    1
    23    19    20    1
    24    20    21    1
    25    21    22    1
    26     3     4   ar
    27     4     5    2
    28     4     6   ar
    29     6     7   ar
    30     7     8   ar
    31     8     9   ar
    32     9    10   ar
    33    10    11   ar
    34    28    29    1
    35    29    30    1
    36    30    25    1
    37    36    31   ar
    38    11     1   ar
    39    21    16    1
    40    11     6   ar
    41    14    15    1
    42    22    23    1
@<TRIPOS>MOLECULE
*****
 38 42 0 0 0
SMALL
GASTEIGER

@<TRIPOS>ATOM
      1 C         140.8656  139.9346  161.0238 C.ar    1  UNL1        0.0104
      2 C         140.8263  138.8255  160.0147 C.ar    1  UNL1        0.0078
      3 C         141.8892  138.7329  158.9603 C.ar    1  UNL1        0.1095
      4 C         142.9912  139.7494  158.9149 C.ar    1  UNL1        0.2691
      5 O         144.0541  139.6568  157.8605 O.2     1  UNL1       -0.2665
      6 N         143.0305  140.8586  159.9241 N.ar    1  UNL1       -0.2733
      7 C         144.1326  141.8751  159.8787 C.ar    1  UNL1        0.0829
      8 C         144.1718  142.9842  160.8878 C.ar    1  UNL1        0.0191
      9 C         143.1089  143.0768  161.9422 C.ar    1  UNL1        0.0030
     10 C         142.0069  142.0603  161.9876 C.ar    1  UNL1        0.0174
     11 C         141.9677  140.9512  160.9785 C.ar    1  UNL1        0.0642
     12 C         141.8499  137.6237  157.9512 C.2     1  UNL1        0.2505
     13 O         140.5862  137.3439  157.1930 O.2     1  UNL1       -0.2700
     14 N         143.0743  136.7944  157.7002 N.am    1  UNL1       -0.3000
     15 H         143.9038  136.9780  158.1978 H       1  UNL1        0.1498
     16 C         143.0350  135.6853  156.6912 C.3     1  UNL1        0.0986
     17 C         142.7609  135.9929  155.2488 C.3     1  UNL1        0.0220
     18 C         142.7216  134.8838  154.2397 C.3     1  UNL1        0.0019
     19 C         142.9564  133.4670  154.6729 C.3     1  UNL1        0.0026
     20 C         143.2305  133.1594  156.1152 C.3     1  UNL1        0.0309
     21 C         143.2698  134.2685  157.1243 C.3     1  UNL1        0.1283
     22 O         143.5440  133.9609  158.5666 O.3     1  UNL1       -0.3828
     23 H         143.6719  133.0054  158.6748 H       1  UNL1        0.2104
     24 C         139.8027  140.0272  162.0782 C.3     1  UNL1        0.1006
     25 C         140.9515  140.1327  166.4278 C.3     1  UNL1        0.1170
     26 C         139.7819  140.9361  165.9413 C.3     1  UNL1        0.0371
     27 C         139.3990  140.9009  164.4914 C.3     1  UNL1        0.0738
     28 N         140.1856  140.0623  163.5280 N.3     1  UNL1       -0.2688
     29 C         141.3552  139.2590  164.0146 C.3     1  UNL1        0.0738
     30 C         141.7381  139.2942  165.4645 C.3     1  UNL1        0.0371
     31 C         140.5188  140.7690  167.7154 C.ar    1  UNL1        0.0716
     32 C         140.9160  142.1822  168.0242 C.ar    1  UNL1        0.0157
     33 C         140.4834  142.8185  169.3118 C.ar    1  UNL1        0.0028
     34 C         139.6536  142.0417  170.2905 C.ar    1  UNL1        0.0207
     35 C         139.2563  140.6286  169.9817 C.ar    1  UNL1        0.0985
     36 N         139.6890  139.9923  168.6941 N.ar    1  UNL1       -0.2472
     37 N         142.9902  138.9680  168.2952 N.1     1  UNL1       -0.1955
     38 C         141.9708  139.5503  167.3615 C.1     1  UNL1        0.0768
@<TRIPOS>BOND
     1    37    38    3
     2    38    25    1
     3    25    31    1
     4    31    32   ar
     5    32    33   ar
     6    33    34   ar
     7    34    35   ar
     8    35    36   ar
     9    25    26    1
    10    26    27    1
    11    27    28    1
    12    28    24    1
    13    24     1    1
    14     1     2   ar
    15     2     3   ar
    16     3    12    1
    17    12    13    2
    18    12    14   am
    19    16    14    1
    20    16    17    1
    21    17    18    1
    22    18    19    1
    23    19    20    1
    24    20    21    1
    25    21    22    1
    26     3     4   ar
    27     4     5    2
    28     4     6   ar
    29     6     7   ar
    30     7     8   ar
    31     8     9   ar
    32     9    10   ar
    33    10    11   ar
    34    28    29    1
    35    29    30    1
    36    30    25    1
    37    36    31   ar
    38    11     1   ar
    39    21    16    1
    40    11     6   ar
    41    14    15    1
    42    22    23    1
@<TRIPOS>MOLECULE
*****
 38 42 0 0 0
SMALL
GASTEIGER

@<TRIPOS>ATOM
      1 C         141.5892  141.5976  161.4866 C.ar    1  UNL1        0.0104
      2 C         142.6599  141.2126  160.5092 C.ar    1  UNL1        0.0078
      3 C         143.1244  142.1987  159.4787 C.ar    1  UNL1        0.1095
      4 C         142.5181  143.5696  159.4255 C.ar    1  UNL1        0.2691
      5 O         142.9826  144.5556  158.3949 O.2     1  UNL1       -0.2665
      6 N         141.4473  143.9546  160.4029 N.ar    1  UNL1       -0.2733
      7 C         140.8410  145.3255  160.3497 C.ar    1  UNL1        0.0829
      8 C         139.7702  145.7104  161.3270 C.ar    1  UNL1        0.0191
      9 C         139.3058  144.7244  162.3576 C.ar    1  UNL1        0.0030
     10 C         139.9121  143.3535  162.4108 C.ar    1  UNL1        0.0174
     11 C         140.9828  142.9686  161.4334 C.ar    1  UNL1        0.0642
     12 C         144.1952  141.8137  158.5013 C.2     1  UNL1        0.2505
     13 O         144.3734  140.3761  158.1117 O.2     1  UNL1       -0.2700
     14 N         145.0878  142.8662  157.9135 N.am    1  UNL1       -0.3000
     15 H         144.9708  143.8097  158.1692 H       1  UNL1        0.1498
     16 C         146.1585  142.4812  156.9362 C.3     1  UNL1        0.0986
     17 C         145.7882  141.8364  155.6334 C.3     1  UNL1        0.0220
     18 C         146.8590  141.4514  154.6561 C.3     1  UNL1        0.0019
     19 C         148.3001  141.7111  154.9815 C.3     1  UNL1        0.0026
     20 C         148.6704  142.3558  156.2842 C.3     1  UNL1        0.0309
     21 C         147.5996  142.7409  157.2616 C.3     1  UNL1        0.1283
     22 O         147.9699  143.3856  158.5643 O.3     1  UNL1       -0.3828
     23 H         148.9339  143.4804  158.6157 H       1  UNL1        0.2104
     24 C         141.1247  140.6115  162.5171 C.3     1  UNL1        0.1006
     25 C         141.9355  141.3653  166.8788 C.3     1  UNL1        0.1170
     26 C         140.7368  140.5634  166.4664 C.3     1  UNL1        0.0371
     27 C         140.4665  140.3121  165.0126 C.3     1  UNL1        0.0738
     28 N         141.3950  140.8628  163.9710 N.3     1  UNL1       -0.2688
     29 C         142.5936  141.6648  164.3834 C.3     1  UNL1        0.0738
     30 C         142.8639  141.9161  165.8373 C.3     1  UNL1        0.0371
     31 C         141.3531  141.0558  168.2260 C.ar    1  UNL1        0.0716
     32 C         140.3220  141.9662  168.8245 C.ar    1  UNL1        0.0157
     33 C         139.7396  141.6566  170.1717 C.ar    1  UNL1        0.0028
     34 C         140.1883  140.4368  170.9205 C.ar    1  UNL1        0.0207
     35 C         141.2194  139.5265  170.3220 C.ar    1  UNL1        0.0985
     36 N         141.8018  139.8360  168.9748 N.ar    1  UNL1       -0.2472
     37 N         143.9282  142.7543  168.6394 N.1     1  UNL1       -0.1955
     38 C         142.9318  142.0598  167.7590 C.1     1  UNL1        0.0768
@<TRIPOS>BOND
     1    37    38    3
     2    38    25    1
     3    25    31    1
     4    31    32   ar
     5    32    33   ar
     6    33    34   ar
     7    34    35   ar
     8    35    36   ar
     9    25    26    1
    10    26    27    1
    11    27    28    1
    12    28    24    1
    13    24     1    1
    14     1     2   ar
    15     2     3   ar
    16     3    12    1
    17    12    13    2
    18    12    14   am
    19    16    14    1
    20    16    17    1
    21    17    18    1
    22    18    19    1
    23    19    20    1
    24    20    21    1
    25    21    22    1
    26     3     4   ar
    27     4     5    2
    28     4     6   ar
    29     6     7   ar
    30     7     8   ar
    31     8     9   ar
    32     9    10   ar
    33    10    11   ar
    34    28    29    1
    35    29    30    1
    36    30    25    1
    37    36    31   ar
    38    11     1   ar
    39    21    16    1
    40    11     6   ar
    41    14    15    1
    42    22    23    1
@<TRIPOS>MOLECULE
*****
 38 42 0 0 0
SMALL
GASTEIGER

@<TRIPOS>ATOM
      1 C         139.9866  140.3130  162.2939 C.ar    1  UNL1        0.0104
      2 C         139.5091  141.4476  161.4367 C.ar    1  UNL1        0.0078
      3 C         140.4033  142.0115  160.3726 C.ar    1  UNL1        0.1095
      4 C         141.7750  141.4408  160.1656 C.ar    1  UNL1        0.2691
      5 O         142.6692  142.0048  159.1015 O.2     1  UNL1       -0.2665
      6 N         142.2525  140.3062  161.0228 N.ar    1  UNL1       -0.2733
      7 C         143.6241  139.7355  160.8157 C.ar    1  UNL1        0.0829
      8 C         144.1016  138.6010  161.6729 C.ar    1  UNL1        0.0191
      9 C         143.2074  138.0370  162.7370 C.ar    1  UNL1        0.0030
     10 C         141.8357  138.6077  162.9440 C.ar    1  UNL1        0.0174
     11 C         141.3583  139.7423  162.0869 C.ar    1  UNL1        0.0642
     12 C         139.9258  143.1461  159.5155 C.2     1  UNL1        0.2505
     13 O         139.2157  144.3105  160.1399 O.2     1  UNL1       -0.2700
     14 N         140.1584  143.1164  158.0339 N.am    1  UNL1       -0.3000
     15 H         140.6245  142.3521  157.6241 H       1  UNL1        0.1498
     16 C         139.6809  144.2510  157.1769 C.3     1  UNL1        0.0986
     17 C         138.5975  144.0222  156.1649 C.3     1  UNL1        0.0220
     18 C         138.1200  145.1568  155.3078 C.3     1  UNL1        0.0019
     19 C         138.7259  146.5202  155.4627 C.3     1  UNL1        0.0026
     20 C         139.8092  146.7491  156.4746 C.3     1  UNL1        0.0309
     21 C         140.2867  145.6144  157.3317 C.3     1  UNL1        0.1283
     22 O         141.3701  145.8433  158.3436 O.3     1  UNL1       -0.3828
     23 H         141.6487  146.7719  158.3145 H       1  UNL1        0.2104
     24 C         139.0924  139.7490  163.3580 C.3     1  UNL1        0.1006
     25 C         139.9362  140.6081  167.6939 C.3     1  UNL1        0.1170
     26 C         140.7287  141.2994  166.6243 C.3     1  UNL1        0.0371
     27 C         140.4475  141.0130  165.1790 C.3     1  UNL1        0.0738
     28 N         139.3736  140.0354  164.8033 N.3     1  UNL1       -0.2688
     29 C         138.5811  139.3441  165.8729 C.3     1  UNL1        0.0738
     30 C         138.8624  139.6305  167.3182 C.3     1  UNL1        0.0371
     31 C         140.8443  141.4468  168.5435 C.ar    1  UNL1        0.0716
     32 C         140.3533  142.7463  169.1096 C.ar    1  UNL1        0.0157
     33 C         141.2614  143.5850  169.9592 C.ar    1  UNL1        0.0028
     34 C         142.6604  143.1243  170.2428 C.ar    1  UNL1        0.0207
     35 C         143.1514  141.8249  169.6767 C.ar    1  UNL1        0.0985
     36 N         142.2433  140.9861  168.8271 N.ar    1  UNL1       -0.2472
     37 N         138.9818  139.8081  170.4233 N.1     1  UNL1       -0.1955
     38 C         139.4590  140.2081  169.0585 C.1     1  UNL1        0.0768
@<TRIPOS>BOND
     1    37    38    3
     2    38    25    1
     3    25    31    1
     4    31    32   ar
     5    32    33   ar
     6    33    34   ar
     7    34    35   ar
     8    35    36   ar
     9    25    26    1
    10    26    27    1
    11    27    28    1
    12    28    24    1
    13    24     1    1
    14     1     2   ar
    15     2     3   ar
    16     3    12    1
    17    12    13    2
    18    12    14   am
    19    16    14    1
    20    16    17    1
    21    17    18    1
    22    18    19    1
    23    19    20    1
    24    20    21    1
    25    21    22    1
    26     3     4   ar
    27     4     5    2
    28     4     6   ar
    29     6     7   ar
    30     7     8   ar
    31     8     9   ar
    32     9    10   ar
    33    10    11   ar
    34    28    29    1
    35    29    30    1
    36    30    25    1
    37    36    31   ar
    38    11     1   ar
    39    21    16    1
    40    11     6   ar
    41    14    15    1
    42    22    23    1
@<TRIPOS>MOLECULE
*****
 38 42 0 0 0
SMALL
GASTEIGER

@<TRIPOS>ATOM
      1 C         143.5060  138.5492  160.6604 C.ar    1  UNL1        0.0104
      2 C         143.0246  137.5142  159.6874 C.ar    1  UNL1        0.0078
      3 C         142.7828  137.8866  158.2546 C.ar    1  UNL1        0.1095
      4 C         143.0226  139.2941  157.7949 C.ar    1  UNL1        0.2691
      5 O         142.7808  139.6666  156.3621 O.2     1  UNL1       -0.2665
      6 N         143.5041  140.3293  158.7679 N.ar    1  UNL1       -0.2733
      7 C         143.7438  141.7368  158.3082 C.ar    1  UNL1        0.0829
      8 C         144.2253  142.7718  159.2812 C.ar    1  UNL1        0.0191
      9 C         144.4670  142.3993  160.7140 C.ar    1  UNL1        0.0030
     10 C         144.2273  140.9918  161.1737 C.ar    1  UNL1        0.0174
     11 C         143.7458  139.9568  160.2007 C.ar    1  UNL1        0.0642
     12 C         142.3013  136.8515  157.2816 C.2     1  UNL1        0.2505
     13 O         140.8835  136.8836  156.7928 O.2     1  UNL1       -0.2700
     14 N         143.2376  135.7843  156.7973 N.am    1  UNL1       -0.3000
     15 H         144.1681  135.7632  157.1181 H       1  UNL1        0.1498
     16 C         142.7560  134.7493  155.8243 C.3     1  UNL1        0.0986
     17 C         142.4900  135.1275  154.3974 C.3     1  UNL1        0.0220
     18 C         142.0085  134.0925  153.4244 C.3     1  UNL1        0.0019
     19 C         141.7930  132.6792  153.8783 C.3     1  UNL1        0.0026
     20 C         142.0590  132.3009  155.3052 C.3     1  UNL1        0.0309
     21 C         142.5405  133.3359  156.2783 C.3     1  UNL1        0.1283
     22 O         142.8065  132.9577  157.7052 O.3     1  UNL1       -0.3828
     23 H         142.6185  132.0143  157.8300 H       1  UNL1        0.2104
     24 C         143.7478  138.1767  162.0932 C.3     1  UNL1        0.1006
     25 C         140.8325  139.4564  165.2734 C.3     1  UNL1        0.1170
     26 C         142.2101  140.0488  165.2366 C.3     1  UNL1        0.0371
     27 C         143.1819  139.6222  164.1765 C.3     1  UNL1        0.0738
     28 N         142.7760  138.6033  163.1532 N.3     1  UNL1       -0.2688
     29 C         141.3984  138.0109  163.1900 C.3     1  UNL1        0.0738
     30 C         140.4267  138.4375  164.2501 C.3     1  UNL1        0.0371
     31 C         140.7500  140.3812  166.4515 C.ar    1  UNL1        0.0716
     32 C         140.4806  141.8418  166.2411 C.ar    1  UNL1        0.0157
     33 C         140.3981  142.7665  167.4192 C.ar    1  UNL1        0.0028
     34 C         140.5849  142.2307  168.8077 C.ar    1  UNL1        0.0207
     35 C         140.8543  140.7702  169.0181 C.ar    1  UNL1        0.0985
     36 N         140.9368  139.8454  167.8400 N.ar    1  UNL1       -0.2472
     37 N         138.0200  138.9140  166.1652 N.1     1  UNL1       -0.1955
     38 C         139.4263  139.1852  165.7193 C.1     1  UNL1        0.0768
@<TRIPOS>BOND
     1    37    38    3
     2    38    25    1
     3    25    31    1
     4    31    32   ar
     5    32    33   ar
     6    33    34   ar
     7    34    35   ar
     8    35    36   ar
     9    25    26    1
    10    26    27    1
    11    27    28    1
    12    28    24    1
    13    24     1    1
    14     1     2   ar
    15     2     3   ar
    16     3    12    1
    17    12    13    2
    18    12    14   am
    19    16    14    1
    20    16    17    1
    21    17    18    1
    22    18    19    1
    23    19    20    1
    24    20    21    1
    25    21    22    1
    26     3     4   ar
    27     4     5    2
    28     4     6   ar
    29     6     7   ar
    30     7     8   ar
    31     8     9   ar
    32     9    10   ar
    33    10    11   ar
    34    28    29    1
    35    29    30    1
    36    30    25    1
    37    36    31   ar
    38    11     1   ar
    39    21    16    1
    40    11     6   ar
    41    14    15    1
    42    22    23    1
@<TRIPOS>MOLECULE
*****
 38 42 0 0 0
SMALL
GASTEIGER

@<TRIPOS>ATOM
      1 C         136.5710  141.0407  156.1844 C.ar    1  UNL1        0.0104
      2 C         137.0585  140.4796  157.4872 C.ar    1  UNL1        0.0078
      3 C         137.9825  141.2851  158.3518 C.ar    1  UNL1        0.1095
      4 C         138.4189  142.6516  157.9136 C.ar    1  UNL1        0.2691
      5 O         139.3429  143.4571  158.7782 O.2     1  UNL1       -0.2665
      6 N         137.9313  143.2128  156.6107 N.ar    1  UNL1       -0.2733
      7 C         138.3677  144.5793  156.1725 C.ar    1  UNL1        0.0829
      8 C         137.8802  145.1404  154.8696 C.ar    1  UNL1        0.0191
      9 C         136.9562  144.3350  154.0050 C.ar    1  UNL1        0.0030
     10 C         136.5198  142.9684  154.4432 C.ar    1  UNL1        0.0174
     11 C         137.0074  142.4073  155.7461 C.ar    1  UNL1        0.0642
     12 C         138.4701  140.7239  159.6547 C.2     1  UNL1        0.2505
     13 O         139.9210  140.8288  160.0204 O.2     1  UNL1       -0.2700
     14 N         137.5067  140.0579  160.5919 N.am    1  UNL1       -0.3000
     15 H         136.5544  139.9891  160.3519 H       1  UNL1        0.1498
     16 C         137.9943  139.4968  161.8947 C.3     1  UNL1        0.0986
     17 C         138.8217  138.2457  161.9097 C.3     1  UNL1        0.0220
     18 C         139.3092  137.6846  163.2125 C.3     1  UNL1        0.0019
     19 C         138.9695  138.3745  164.5003 C.3     1  UNL1        0.0026
     20 C         138.1421  139.6256  164.4854 C.3     1  UNL1        0.0309
     21 C         137.6545  140.1868  163.1825 C.3     1  UNL1        0.1283
     22 O         136.8271  141.4378  163.1675 O.3     1  UNL1       -0.3828
     23 H         136.7008  141.7528  164.0762 H       1  UNL1        0.2104
     24 C         135.6470  140.2353  155.3197 C.3     1  UNL1        0.1006
     25 C         131.2599  140.0261  156.2993 C.3     1  UNL1        0.1170
     26 C         132.1864  138.9454  156.7723 C.3     1  UNL1        0.0371
     27 C         133.6487  139.0151  156.4458 C.3     1  UNL1        0.0738
     28 N         134.1847  140.1656  155.6462 N.3     1  UNL1       -0.2688
     29 C         133.2582  141.2463  155.1732 C.3     1  UNL1        0.0738
     30 C         131.7958  141.1765  155.4997 C.3     1  UNL1        0.0371
     31 C         130.2846  139.1447  157.0217 C.ar    1  UNL1        0.0716
     32 C         129.7201  137.9339  156.3394 C.ar    1  UNL1        0.0157
     33 C         128.7448  137.0524  157.0618 C.ar    1  UNL1        0.0028
     34 C         128.3341  137.3817  158.4664 C.ar    1  UNL1        0.0207
     35 C         128.8986  138.5925  159.1486 C.ar    1  UNL1        0.0985
     36 N         129.8739  139.4739  158.4262 N.ar    1  UNL1       -0.2472
     37 N         128.7296  141.5753  155.8550 N.1     1  UNL1       -0.1955
     38 C         129.9948  140.8007  156.0771 C.1     1  UNL1        0.0768
@<TRIPOS>BOND
     1    37    38    3
     2    38    25    1
     3    25    31    1
     4    31    32   ar
     5    32    33   ar
     6    33    34   ar
     7    34    35   ar
     8    35    36   ar
     9    25    26    1
    10    26    27    1
    11    27    28    1
    12    28    24    1
    13    24     1    1
    14     1     2   ar
    15     2     3   ar
    16     3    12    1
    17    12    13    2
    18    12    14   am
    19    16    14    1
    20    16    17    1
    21    17    18    1
    22    18    19    1
    23    19    20    1
    24    20    21    1
    25    21    22    1
    26     3     4   ar
    27     4     5    2
    28     4     6   ar
    29     6     7   ar
    30     7     8   ar
    31     8     9   ar
    32     9    10   ar
    33    10    11   ar
    34    28    29    1
    35    29    30    1
    36    30    25    1
    37    36    31   ar
    38    11     1   ar
    39    21    16    1
    40    11     6   ar
    41    14    15    1
    42    22    23    1
@<TRIPOS>MOLECULE
*****
 38 42 0 0 0
SMALL
GASTEIGER

@<TRIPOS>ATOM
      1 C         143.3965  139.2855  162.2445 C.ar    1  UNL1        0.0104
      2 C         143.9197  139.9309  160.9956 C.ar    1  UNL1        0.0078
      3 C         143.0306  140.0729  159.7958 C.ar    1  UNL1        0.1095
      4 C         141.6185  139.5696  159.8449 C.ar    1  UNL1        0.2691
      5 O         140.7295  139.7116  158.6452 O.2     1  UNL1       -0.2665
      6 N         141.0953  138.9242  161.0939 N.ar    1  UNL1       -0.2733
      7 C         139.6832  138.4208  161.1430 C.ar    1  UNL1        0.0829
      8 C         139.1600  137.7755  162.3919 C.ar    1  UNL1        0.0191
      9 C         140.0491  137.6334  163.5917 C.ar    1  UNL1        0.0030
     10 C         141.4612  138.1368  163.5426 C.ar    1  UNL1        0.0174
     11 C         141.9843  138.7821  162.2937 C.ar    1  UNL1        0.0642
     12 C         143.5538  140.7183  158.5469 C.2     1  UNL1        0.2505
     13 O         142.9576  142.0065  158.0620 O.2     1  UNL1       -0.2700
     14 N         144.6732  140.0756  157.7828 N.am    1  UNL1       -0.3000
     15 H         145.0646  139.2301  158.1011 H       1  UNL1        0.1498
     16 C         145.1963  140.7210  156.5340 C.3     1  UNL1        0.0986
     17 C         145.0772  140.0125  155.2171 C.3     1  UNL1        0.0220
     18 C         145.6004  140.6580  153.9682 C.3     1  UNL1        0.0019
     19 C         146.2426  142.0118  154.0361 C.3     1  UNL1        0.0026
     20 C         146.3617  142.7203  155.3529 C.3     1  UNL1        0.0309
     21 C         145.8386  142.0748  156.6018 C.3     1  UNL1        0.1283
     22 O         145.9577  142.7833  157.9186 O.3     1  UNL1       -0.3828
     23 H         146.3935  143.6397  157.7867 H       1  UNL1        0.2104
     24 C         144.2856  139.1435  163.4442 C.3     1  UNL1        0.1006
     25 C         142.7210  140.1661  167.5377 C.3     1  UNL1        0.1170
     26 C         142.7971  141.2248  166.4778 C.3     1  UNL1        0.0371
     27 C         143.3186  140.8839  165.1133 C.3     1  UNL1        0.0738
     28 N         143.7641  139.4843  164.8087 N.3     1  UNL1       -0.2688
     29 C         143.6880  138.4257  165.8686 C.3     1  UNL1        0.0738
     30 C         143.1665  138.7666  167.2331 C.3     1  UNL1        0.0371
     31 C         142.1844  141.3396  168.3026 C.ar    1  UNL1        0.0716
     32 C         140.8332  141.8985  167.9680 C.ar    1  UNL1        0.0157
     33 C         140.2966  143.0719  168.7329 C.ar    1  UNL1        0.0028
     34 C         141.1111  143.6864  169.8324 C.ar    1  UNL1        0.0207
     35 C         142.4624  143.1275  170.1670 C.ar    1  UNL1        0.0985
     36 N         142.9990  141.9541  169.4020 N.ar    1  UNL1       -0.2472
     37 N         142.1963  138.8638  170.1889 N.1     1  UNL1       -0.1955
     38 C         142.4587  139.5150  168.8632 C.1     1  UNL1        0.0768
@<TRIPOS>BOND
     1    37    38    3
     2    38    25    1
     3    25    31    1
     4    31    32   ar
     5    32    33   ar
     6    33    34   ar
     7    34    35   ar
     8    35    36   ar
     9    25    26    1
    10    26    27    1
    11    27    28    1
    12    28    24    1
    13    24     1    1
    14     1     2   ar
    15     2     3   ar
    16     3    12    1
    17    12    13    2
    18    12    14   am
    19    16    14    1
    20    16    17    1
    21    17    18    1
    22    18    19    1
    23    19    20    1
    24    20    21    1
    25    21    22    1
    26     3     4   ar
    27     4     5    2
    28     4     6   ar
    29     6     7   ar
    30     7     8   ar
    31     8     9   ar
    32     9    10   ar
    33    10    11   ar
    34    28    29    1
    35    29    30    1
    36    30    25    1
    37    36    31   ar
    38    11     1   ar
    39    21    16    1
    40    11     6   ar
    41    14    15    1
    42    22    23    1
@<TRIPOS>MOLECULE
*****
 38 42 0 0 0
SMALL
GASTEIGER

@<TRIPOS>ATOM
      1 C         140.4325  139.2816  157.4301 C.ar    1  UNL1        0.0104
      2 C         141.4560  138.1854  157.4050 C.ar    1  UNL1        0.0078
      3 C         141.3426  137.0763  156.4015 C.ar    1  UNL1        0.1095
      4 C         140.2057  137.0633  155.4231 C.ar    1  UNL1        0.2691
      5 O         140.0924  135.9542  154.4196 O.2     1  UNL1       -0.2665
      6 N         139.1821  138.1596  155.4482 N.ar    1  UNL1       -0.2733
      7 C         138.0452  138.1466  154.4699 C.ar    1  UNL1        0.0829
      8 C         137.0217  139.2428  154.4950 C.ar    1  UNL1        0.0191
      9 C         137.1350  140.3519  155.4985 C.ar    1  UNL1        0.0030
     10 C         138.2719  140.3649  156.4768 C.ar    1  UNL1        0.0174
     11 C         139.2955  139.2687  156.4517 C.ar    1  UNL1        0.0642
     12 C         142.3663  135.9800  156.3764 C.2     1  UNL1        0.2505
     13 O         143.8274  136.3174  156.4099 O.2     1  UNL1       -0.2700
     14 N         141.9287  134.5465  156.3178 N.am    1  UNL1       -0.3000
     15 H         140.9697  134.3251  156.2958 H       1  UNL1        0.1498
     16 C         142.9523  133.4504  156.2927 C.3     1  UNL1        0.0986
     17 C         143.0993  132.5892  155.0733 C.3     1  UNL1        0.0220
     18 C         144.1229  131.4931  155.0482 C.3     1  UNL1        0.0019
     19 C         144.9995  131.2580  156.2424 C.3     1  UNL1        0.0026
     20 C         144.8525  132.1191  157.4618 C.3     1  UNL1        0.0309
     21 C         143.8289  133.2153  157.4870 C.3     1  UNL1        0.1283
     22 O         143.6819  134.0764  158.7063 O.3     1  UNL1       -0.3828
     23 H         144.3191  133.7934  159.3807 H       1  UNL1        0.2104
     24 C         140.5458  140.3907  158.4336 C.3     1  UNL1        0.1006
     25 C         140.8198  139.4349  162.8223 C.3     1  UNL1        0.1170
     26 C         139.4785  139.5300  162.1578 C.3     1  UNL1        0.0371
     27 C         139.3871  139.8486  160.6949 C.3     1  UNL1        0.0738
     28 N         140.6372  140.0721  159.8965 N.3     1  UNL1       -0.2688
     29 C         141.9786  139.9771  160.5610 C.3     1  UNL1        0.0738
     30 C         142.0699  139.6585  162.0240 C.3     1  UNL1        0.0371
     31 C         139.9281  139.1432  163.9926 C.ar    1  UNL1        0.0716
     32 C         139.5068  137.7328  164.2813 C.ar    1  UNL1        0.0157
     33 C         138.6150  137.4410  165.4516 C.ar    1  UNL1        0.0028
     34 C         138.1445  138.5596  166.3332 C.ar    1  UNL1        0.0207
     35 C         138.5658  139.9700  166.0446 C.ar    1  UNL1        0.0985
     36 N         139.4576  140.2618  164.8743 N.ar    1  UNL1       -0.2472
     37 N         142.8833  139.0423  164.9643 N.1     1  UNL1       -0.1955
     38 C         141.8515  139.2386  163.8933 C.1     1  UNL1        0.0768
@<TRIPOS>BOND
     1    37    38    3
     2    38    25    1
     3    25    31    1
     4    31    32   ar
     5    32    33   ar
     6    33    34   ar
     7    34    35   ar
     8    35    36   ar
     9    25    26    1
    10    26    27    1
    11    27    28    1
    12    28    24    1
    13    24     1    1
    14     1     2   ar
    15     2     3   ar
    16     3    12    1
    17    12    13    2
    18    12    14   am
    19    16    14    1
    20    16    17    1
    21    17    18    1
    22    18    19    1
    23    19    20    1
    24    20    21    1
    25    21    22    1
    26     3     4   ar
    27     4     5    2
    28     4     6   ar
    29     6     7   ar
    30     7     8   ar
    31     8     9   ar
    32     9    10   ar
    33    10    11   ar
    34    28    29    1
    35    29    30    1
    36    30    25    1
    37    36    31   ar
    38    11     1   ar
    39    21    16    1
    40    11     6   ar
    41    14    15    1
    42    22    23    1
@<TRIPOS>MOLECULE
*****
 38 42 0 0 0
SMALL
GASTEIGER

@<TRIPOS>ATOM
      1 C         143.1975  143.4090  161.9486 C.ar    1  UNL1        0.0104
      2 C         143.8662  142.7371  160.7861 C.ar    1  UNL1        0.0078
      3 C         143.3786  142.9918  159.3906 C.ar    1  UNL1        0.1095
      4 C         142.2222  143.9184  159.1576 C.ar    1  UNL1        0.2691
      5 O         141.7346  144.1730  157.7621 O.2     1  UNL1       -0.2665
      6 N         141.5535  144.5903  160.3201 N.ar    1  UNL1       -0.2733
      7 C         140.3971  145.5169  160.0870 C.ar    1  UNL1        0.0829
      8 C         139.7284  146.1888  161.2495 C.ar    1  UNL1        0.0191
      9 C         140.2160  145.9341  162.6450 C.ar    1  UNL1        0.0030
     10 C         141.3724  145.0076  162.8780 C.ar    1  UNL1        0.0174
     11 C         142.0411  144.3357  161.7156 C.ar    1  UNL1        0.0642
     12 C         144.0473  142.3198  158.2281 C.2     1  UNL1        0.2505
     13 O         144.4485  140.8777  158.3248 O.2     1  UNL1       -0.2700
     14 N         144.3149  143.0900  156.9691 N.am    1  UNL1       -0.3000
     15 H         144.0516  144.0365  156.9057 H       1  UNL1        0.1498
     16 C         144.9837  142.4180  155.8067 C.3     1  UNL1        0.0986
     17 C         144.1598  141.6932  154.7840 C.3     1  UNL1        0.0220
     18 C         144.8286  141.0212  153.6216 C.3     1  UNL1        0.0019
     19 C         146.3211  141.0741  153.4819 C.3     1  UNL1        0.0026
     20 C         147.1449  141.7989  154.5045 C.3     1  UNL1        0.0309
     21 C         146.4762  142.4709  155.6670 C.3     1  UNL1        0.1283
     22 O         147.3000  143.1957  156.6897 O.3     1  UNL1       -0.3828
     23 H         148.2383  143.1340  156.4518 H       1  UNL1        0.2104
     24 C         143.6851  143.1544  163.3440 C.3     1  UNL1        0.1006
     25 C         141.2471  140.6205  166.1522 C.3     1  UNL1        0.1170
     26 C         142.2442  141.5988  166.6987 C.3     1  UNL1        0.0371
     27 C         143.0569  142.4434  165.7627 C.3     1  UNL1        0.0738
     28 N         142.8724  142.3098  164.2801 N.3     1  UNL1       -0.2688
     29 C         141.8753  141.3315  163.7335 C.3     1  UNL1        0.0738
     30 C         141.0626  140.4869  164.6696 C.3     1  UNL1        0.0371
     31 C         141.0631  140.3862  167.6223 C.ar    1  UNL1        0.0716
     32 C         142.0979  139.6237  168.3955 C.ar    1  UNL1        0.0157
     33 C         141.9139  139.3893  169.8656 C.ar    1  UNL1        0.0028
     34 C         140.6952  139.9174  170.5624 C.ar    1  UNL1        0.0207
     35 C         139.6603  140.6798  169.7892 C.ar    1  UNL1        0.0985
     36 N         139.8443  140.9142  168.3191 N.ar    1  UNL1       -0.2472
     37 N         139.1249  138.5013  166.0801 N.1     1  UNL1       -0.1955
     38 C         140.1860  139.5609  166.1161 C.1     1  UNL1        0.0768
@<TRIPOS>BOND
     1    37    38    3
     2    38    25    1
     3    25    31    1
     4    31    32   ar
     5    32    33   ar
     6    33    34   ar
     7    34    35   ar
     8    35    36   ar
     9    25    26    1
    10    26    27    1
    11    27    28    1
    12    28    24    1
    13    24     1    1
    14     1     2   ar
    15     2     3   ar
    16     3    12    1
    17    12    13    2
    18    12    14   am
    19    16    14    1
    20    16    17    1
    21    17    18    1
    22    18    19    1
    23    19    20    1
    24    20    21    1
    25    21    22    1
    26     3     4   ar
    27     4     5    2
    28     4     6   ar
    29     6     7   ar
    30     7     8   ar
    31     8     9   ar
    32     9    10   ar
    33    10    11   ar
    34    28    29    1
    35    29    30    1
    36    30    25    1
    37    36    31   ar
    38    11     1   ar
    39    21    16    1
    40    11     6   ar
    41    14    15    1
    42    22    23    1
