@<TRIPOS>MOLECULE
*****
 42 47 0 0 0
SMALL
GASTEIGER

@<TRIPOS>ATOM
      1 C         144.3055  139.7583  163.4370 C.3     1  UNL1        0.0901
      2 C         143.8520  139.5956  164.8575 C.3     1  UNL1        0.0359
      3 C         142.5794  138.8609  165.1591 C.3     1  UNL1        0.0737
      4 N         141.7603  138.2890  164.0401 N.3     1  UNL1       -0.2687
      5 C         142.2139  138.4518  162.6195 C.3     1  UNL1        0.1092
      6 C         143.4864  139.1864  162.3180 C.3     1  UNL1        0.1911
      7 F         143.9399  139.3491  160.8975 F       1  UNL1       -0.2343
      8 N         145.5780  140.4929  163.1355 N.3     1  UNL1       -0.2913
      9 H         146.3206  140.0185  163.6491 H       1  UNL1        0.1236
     10 C         145.6948  141.9536  163.4560 C.3     1  UNL1        0.1152
     11 O         140.4419  145.3042  158.7728 O.2     1  UNL1       -0.2707
     12 C         141.0128  145.0936  160.1439 C.2     1  UNL1        0.2718
     13 C         140.4035  145.7891  161.3250 C.3     1  UNL1        0.2898
     14 O         140.9743  145.5785  162.6960 O.3     1  UNL1       -0.4628
     15 C         142.1544  144.6723  162.8860 C.ar    1  UNL1        0.1708
     16 C         142.7252  144.4616  164.2571 C.ar    1  UNL1        0.0411
     17 C         143.9053  143.5554  164.4471 C.ar    1  UNL1        0.0193
     18 C         144.5147  142.8598  163.2660 C.ar    1  UNL1        0.0765
     19 N         143.9438  143.0705  161.8949 N.ar    1  UNL1       -0.2304
     20 C         142.7637  143.9767  161.7049 C.ar    1  UNL1        0.1682
     21 N         142.1929  144.1874  160.3339 N.am    1  UNL1       -0.2639
     22 H         142.5928  143.7308  159.5587 H       1  UNL1        0.1565
     23 C         140.4878  137.5544  164.3416 C.3     1  UNL1        0.0970
     24 C         139.2539  138.3172  164.7233 C.3     1  UNL1        0.1264
     25 N         138.7953  139.4713  163.8819 N.ar    1  UNL1       -0.2926
     26 C         138.1352  139.2191  162.5587 C.ar    1  UNL1        0.2611
     27 O         137.9338  137.8128  162.0770 O.2     1  UNL1       -0.2670
     28 C         137.6766  140.3730  161.7173 C.ar    1  UNL1        0.0623
     29 C         137.8780  141.7793  162.1991 C.ar    1  UNL1        0.0255
     30 C         138.5381  142.0315  163.5222 C.ar    1  UNL1        0.0975
     31 N         138.7395  143.4376  164.0040 N.ar    1  UNL1       -0.2392
     32 C         139.3996  143.6898  165.3271 C.ar    1  UNL1        0.1363
     33 C         139.8582  142.5358  166.1685 C.ar    1  UNL1        0.1659
     34 C         139.6568  141.1296  165.6868 C.ar    1  UNL1        0.0579
     35 C         138.9967  140.8774  164.3636 C.ar    1  UNL1        0.0832
     36 O         140.5183  142.7880  167.4917 O.3     1  UNL1       -0.4503
     37 C         141.0283  141.6367  168.3069 C.ar    1  UNL1        0.1644
     38 C         140.1412  140.9905  169.3293 C.ar    1  UNL1        0.0407
     39 C         140.6512  139.8393  170.1446 C.ar    1  UNL1        0.0238
     40 C         142.0483  139.3342  169.9373 C.ar    1  UNL1        0.0991
     41 N         142.9355  139.9805  168.9148 N.ar    1  UNL1       -0.2391
     42 C         142.4254  141.1317  168.0997 C.ar    1  UNL1        0.1362
@<TRIPOS>BOND
     1    11    12    2
     2    12    13    1
     3    13    14    1
     4    14    15    1
     5    15    16   ar
     6    16    17   ar
     7    17    18   ar
     8    18    10    1
     9    10     8    1
    10     1     8    1
    11     1     2    1
    12     2     3    1
    13     3     4    1
    14     4    23    1
    15    23    24    1
    16    24    25    1
    17    25    26   ar
    18    26    27    2
    19    26    28   ar
    20    28    29   ar
    21    29    30   ar
    22    30    31   ar
    23    31    32   ar
    24    32    33   ar
    25    33    36    1
    26    36    37    1
    27    37    38   ar
    28    38    39   ar
    29    39    40   ar
    30    40    41   ar
    31    41    42   ar
    32    33    34   ar
    33    34    35   ar
    34     4     5    1
    35     5     6    1
    36     6     7    1
    37    18    19   ar
    38    19    20   ar
    39    20    21    1
    40    21    12   am
    41    20    15   ar
    42     6     1    1
    43    35    25   ar
    44    35    30   ar
    45    42    37   ar
    46     8     9    1
    47    21    22    1
@<TRIPOS>MOLECULE
*****
 42 47 0 0 0
SMALL
GASTEIGER

@<TRIPOS>ATOM
      1 C         142.3095  144.4970  163.3446 C.3     1  UNL1        0.0901
      2 C         143.3905  144.1467  162.3655 C.3     1  UNL1        0.0359
      3 C         144.1636  142.8713  162.5263 C.3     1  UNL1        0.0737
      4 N         143.8556  141.9462  163.6661 N.3     1  UNL1       -0.2687
      5 C         142.7745  142.2965  164.6453 C.3     1  UNL1        0.1092
      6 C         142.0015  143.5719  164.4845 C.3     1  UNL1        0.1911
      7 F         140.9205  143.9221  165.4636 F       1  UNL1       -0.2343
      8 N         141.5365  145.7723  163.1839 N.3     1  UNL1       -0.2913
      9 H         141.3167  146.1038  164.1231 H       1  UNL1        0.1236
     10 C         140.2510  145.7778  162.4108 C.3     1  UNL1        0.1152
     11 O         138.7935  139.2643  158.3860 O.2     1  UNL1       -0.2707
     12 C         138.5045  140.1632  159.5515 C.2     1  UNL1        0.2718
     13 C         137.4408  139.7898  160.5410 C.3     1  UNL1        0.2898
     14 O         137.1519  140.6887  161.7066 O.3     1  UNL1       -0.4628
     15 C         137.9267  141.9610  161.8826 C.ar    1  UNL1        0.1708
     16 C         137.6377  142.8599  163.0482 C.ar    1  UNL1        0.0411
     17 C         138.4125  144.1321  163.2243 C.ar    1  UNL1        0.0193
     18 C         139.4762  144.5056  162.2348 C.ar    1  UNL1        0.0765
     19 N         139.7652  143.6067  161.0692 N.ar    1  UNL1       -0.2304
     20 C         138.9904  142.3344  160.8932 C.ar    1  UNL1        0.1682
     21 N         139.2793  141.4355  159.7276 N.am    1  UNL1       -0.2639
     22 H         139.9774  141.6806  159.0782 H       1  UNL1        0.1565
     23 C         144.6286  140.6708  163.8269 C.3     1  UNL1        0.0970
     24 C         143.9294  139.4214  164.2740 C.3     1  UNL1        0.1264
     25 N         142.7131  138.9391  163.5405 N.ar    1  UNL1       -0.2926
     26 C         142.8321  138.4615  162.1235 C.ar    1  UNL1        0.2611
     27 O         144.1675  138.4663  161.4401 O.2     1  UNL1       -0.2670
     28 C         141.6159  137.9792  161.3900 C.ar    1  UNL1        0.0623
     29 C         140.2806  137.9745  162.0734 C.ar    1  UNL1        0.0255
     30 C         140.1616  138.4521  163.4903 C.ar    1  UNL1        0.0975
     31 N         138.8263  138.4474  164.1737 N.ar    1  UNL1       -0.2392
     32 C         138.7073  138.9249  165.5907 C.ar    1  UNL1        0.1363
     33 C         139.9235  139.4072  166.3242 C.ar    1  UNL1        0.1659
     34 C         141.2589  139.4120  165.6408 C.ar    1  UNL1        0.0579
     35 C         141.3779  138.9344  164.2239 C.ar    1  UNL1        0.0832
     36 O         139.8045  139.8848  167.7412 O.3     1  UNL1       -0.4503
     37 C         140.9937  140.4815  168.4339 C.ar    1  UNL1        0.1644
     38 C         141.2866  141.9459  168.2936 C.ar    1  UNL1        0.0407
     39 C         142.4759  142.5426  168.9863 C.ar    1  UNL1        0.0238
     40 C         143.3721  141.6749  169.8193 C.ar    1  UNL1        0.0991
     41 N         143.0791  140.2105  169.9595 N.ar    1  UNL1       -0.2391
     42 C         141.8899  139.6138  169.2668 C.ar    1  UNL1        0.1362
@<TRIPOS>BOND
     1    11    12    2
     2    12    13    1
     3    13    14    1
     4    14    15    1
     5    15    16   ar
     6    16    17   ar
     7    17    18   ar
     8    18    10    1
     9    10     8    1
    10     1     8    1
    11     1     2    1
    12     2     3    1
    13     3     4    1
    14     4    23    1
    15    23    24    1
    16    24    25    1
    17    25    26   ar
    18    26    27    2
    19    26    28   ar
    20    28    29   ar
    21    29    30   ar
    22    30    31   ar
    23    31    32   ar
    24    32    33   ar
    25    33    36    1
    26    36    37    1
    27    37    38   ar
    28    38    39   ar
    29    39    40   ar
    30    40    41   ar
    31    41    42   ar
    32    33    34   ar
    33    34    35   ar
    34     4     5    1
    35     5     6    1
    36     6     7    1
    37    18    19   ar
    38    19    20   ar
    39    20    21    1
    40    21    12   am
    41    20    15   ar
    42     6     1    1
    43    35    25   ar
    44    35    30   ar
    45    42    37   ar
    46     8     9    1
    47    21    22    1
@<TRIPOS>MOLECULE
*****
 42 47 0 0 0
SMALL
GASTEIGER

@<TRIPOS>ATOM
      1 C         137.9334  139.9156  162.6271 C.3     1  UNL1        0.0901
      2 C         137.7486  141.1350  161.7733 C.3     1  UNL1        0.0359
      3 C         137.7295  142.4961  162.4036 C.3     1  UNL1        0.0737
      4 N         137.8952  142.6377  163.8877 N.3     1  UNL1       -0.2687
      5 C         138.0800  141.4182  164.7415 C.3     1  UNL1        0.1092
      6 C         138.0992  140.0573  164.1112 C.3     1  UNL1        0.1911
      7 F         138.2840  138.8379  164.9649 F       1  UNL1       -0.2343
      8 N         137.9526  138.5547  161.9968 N.3     1  UNL1       -0.2913
      9 H         137.7580  137.8834  162.7397 H       1  UNL1        0.1236
     10 C         139.1845  138.0729  161.2895 C.3     1  UNL1        0.1152
     11 O         144.0626  137.9643  167.3675 O.2     1  UNL1       -0.2707
     12 C         143.7913  138.2731  165.9249 C.2     1  UNL1        0.2718
     13 C         144.8748  138.8544  165.0658 C.3     1  UNL1        0.2898
     14 O         144.6035  139.1632  163.6232 O.3     1  UNL1       -0.4628
     15 C         143.2488  138.8906  163.0398 C.ar    1  UNL1        0.1708
     16 C         142.9775  139.1994  161.5972 C.ar    1  UNL1        0.0411
     17 C         141.6228  138.9268  161.0138 C.ar    1  UNL1        0.0193
     18 C         140.5393  138.3455  161.8729 C.ar    1  UNL1        0.0765
     19 N         140.8105  138.0367  163.3155 N.ar    1  UNL1       -0.2304
     20 C         142.1653  138.3093  163.8989 C.ar    1  UNL1        0.1682
     21 N         142.4366  138.0005  165.3415 N.am    1  UNL1       -0.2639
     22 H         141.7255  137.6189  165.9054 H       1  UNL1        0.1565
     23 C         137.8761  143.9987  164.5180 C.3     1  UNL1        0.0970
     24 C         139.1397  144.8020  164.6065 C.3     1  UNL1        0.1264
     25 N         140.2458  144.5712  163.6199 N.ar    1  UNL1       -0.2926
     26 C         140.1369  145.1216  162.2287 C.ar    1  UNL1        0.2611
     27 O         138.9218  145.9028  161.8243 O.2     1  UNL1       -0.2670
     28 C         141.2429  144.8909  161.2421 C.ar    1  UNL1        0.0623
     29 C         142.4579  144.1097  161.6466 C.ar    1  UNL1        0.0255
     30 C         142.5669  143.5593  163.0377 C.ar    1  UNL1        0.0975
     31 N         143.7818  142.7782  163.4422 N.ar    1  UNL1       -0.2392
     32 C         143.8908  142.2278  164.8333 C.ar    1  UNL1        0.1363
     33 C         142.7847  142.4585  165.8199 C.ar    1  UNL1        0.1659
     34 C         141.5697  143.2397  165.4155 C.ar    1  UNL1        0.0579
     35 C         141.4608  143.7901  164.0244 C.ar    1  UNL1        0.0832
     36 O         142.8937  141.9081  167.2111 O.3     1  UNL1       -0.4503
     37 C         141.6592  141.4760  167.9455 C.ar    1  UNL1        0.1644
     38 C         140.8120  140.3650  167.3997 C.ar    1  UNL1        0.0407
     39 C         139.5775  139.9330  168.1341 C.ar    1  UNL1        0.0238
     40 C         139.1902  140.6119  169.4143 C.ar    1  UNL1        0.0991
     41 N         140.0374  141.7230  169.9601 N.ar    1  UNL1       -0.2391
     42 C         141.2719  142.1550  169.2257 C.ar    1  UNL1        0.1362
@<TRIPOS>BOND
     1    11    12    2
     2    12    13    1
     3    13    14    1
     4    14    15    1
     5    15    16   ar
     6    16    17   ar
     7    17    18   ar
     8    18    10    1
     9    10     8    1
    10     1     8    1
    11     1     2    1
    12     2     3    1
    13     3     4    1
    14     4    23    1
    15    23    24    1
    16    24    25    1
    17    25    26   ar
    18    26    27    2
    19    26    28   ar
    20    28    29   ar
    21    29    30   ar
    22    30    31   ar
    23    31    32   ar
    24    32    33   ar
    25    33    36    1
    26    36    37    1
    27    37    38   ar
    28    38    39   ar
    29    39    40   ar
    30    40    41   ar
    31    41    42   ar
    32    33    34   ar
    33    34    35   ar
    34     4     5    1
    35     5     6    1
    36     6     7    1
    37    18    19   ar
    38    19    20   ar
    39    20    21    1
    40    21    12   am
    41    20    15   ar
    42     6     1    1
    43    35    25   ar
    44    35    30   ar
    45    42    37   ar
    46     8     9    1
    47    21    22    1
@<TRIPOS>MOLECULE
*****
 42 47 0 0 0
SMALL
GASTEIGER

@<TRIPOS>ATOM
      1 C         144.1115  139.8147  163.3360 C.3     1  UNL1        0.0901
      2 C         144.0625  139.3977  164.7760 C.3     1  UNL1        0.0359
      3 C         142.8308  138.7408  165.3251 C.3     1  UNL1        0.0737
      4 N         141.6482  138.5008  164.4342 N.3     1  UNL1       -0.2687
      5 C         141.6972  138.9178  162.9941 C.3     1  UNL1        0.1092
      6 C         142.9289  139.5747  162.4450 C.3     1  UNL1        0.1911
      7 F         142.9779  139.9916  161.0050 F       1  UNL1       -0.2343
      8 N         145.3431  140.4716  162.7869 N.3     1  UNL1       -0.2913
      9 H         146.1423  139.9911  163.2003 H       1  UNL1        0.1236
     10 C         145.5659  141.9403  162.9949 C.3     1  UNL1        0.1152
     11 O         139.9243  145.6684  159.1188 O.2     1  UNL1       -0.2707
     12 C         140.6391  145.3696  160.4032 C.2     1  UNL1        0.2718
     13 C         140.1881  146.0147  161.6801 C.3     1  UNL1        0.2898
     14 O         140.9028  145.7158  162.9646 O.3     1  UNL1       -0.4628
     15 C         142.0686  144.7720  162.9722 C.ar    1  UNL1        0.1708
     16 C         142.7833  144.4732  164.2566 C.ar    1  UNL1        0.0411
     17 C         143.9491  143.5293  164.2642 C.ar    1  UNL1        0.0193
     18 C         144.4001  142.8842  162.9873 C.ar    1  UNL1        0.0765
     19 N         143.6854  143.1830  161.7028 N.ar    1  UNL1       -0.2304
     20 C         142.5196  144.1269  161.6953 C.ar    1  UNL1        0.1682
     21 N         141.8048  144.4258  160.4108 N.am    1  UNL1       -0.2639
     22 H         142.1009  144.0024  159.5728 H       1  UNL1        0.1565
     23 C         140.4166  137.8439  164.9833 C.3     1  UNL1        0.0970
     24 C         139.3523  138.6739  165.6377 C.3     1  UNL1        0.1264
     25 N         139.4888  140.1669  165.6851 N.ar    1  UNL1       -0.2926
     26 C         140.1463  140.8229  166.8630 C.ar    1  UNL1        0.2611
     27 O         140.6673  139.9859  167.9934 O.2     1  UNL1       -0.2670
     28 C         140.2827  142.3159  166.9104 C.ar    1  UNL1        0.0623
     29 C         139.7617  143.1530  165.7799 C.ar    1  UNL1        0.0255
     30 C         139.1042  142.4970  164.6021 C.ar    1  UNL1        0.0975
     31 N         138.5831  143.3340  163.4717 N.ar    1  UNL1       -0.2392
     32 C         137.9256  142.6780  162.2938 C.ar    1  UNL1        0.1363
     33 C         137.7891  141.1850  162.2464 C.ar    1  UNL1        0.1659
     34 C         138.3102  140.3479  163.3768 C.ar    1  UNL1        0.0579
     35 C         138.9677  141.0039  164.5547 C.ar    1  UNL1        0.0832
     36 O         137.1316  140.5290  161.0685 O.3     1  UNL1       -0.4503
     37 C         137.9661  140.0238  159.9290 C.ar    1  UNL1        0.1644
     38 C         139.0608  139.0305  160.1838 C.ar    1  UNL1        0.0407
     39 C         139.8952  138.5252  159.0442 C.ar    1  UNL1        0.0238
     40 C         139.6349  139.0133  157.6499 C.ar    1  UNL1        0.0991
     41 N         138.5402  140.0066  157.3952 N.ar    1  UNL1       -0.2391
     42 C         137.7058  140.5119  158.5347 C.ar    1  UNL1        0.1362
@<TRIPOS>BOND
     1    11    12    2
     2    12    13    1
     3    13    14    1
     4    14    15    1
     5    15    16   ar
     6    16    17   ar
     7    17    18   ar
     8    18    10    1
     9    10     8    1
    10     1     8    1
    11     1     2    1
    12     2     3    1
    13     3     4    1
    14     4    23    1
    15    23    24    1
    16    24    25    1
    17    25    26   ar
    18    26    27    2
    19    26    28   ar
    20    28    29   ar
    21    29    30   ar
    22    30    31   ar
    23    31    32   ar
    24    32    33   ar
    25    33    36    1
    26    36    37    1
    27    37    38   ar
    28    38    39   ar
    29    39    40   ar
    30    40    41   ar
    31    41    42   ar
    32    33    34   ar
    33    34    35   ar
    34     4     5    1
    35     5     6    1
    36     6     7    1
    37    18    19   ar
    38    19    20   ar
    39    20    21    1
    40    21    12   am
    41    20    15   ar
    42     6     1    1
    43    35    25   ar
    44    35    30   ar
    45    42    37   ar
    46     8     9    1
    47    21    22    1
@<TRIPOS>MOLECULE
*****
 42 47 0 0 0
SMALL
GASTEIGER

@<TRIPOS>ATOM
      1 C         144.6312  142.6296  162.0359 C.3     1  UNL1        0.0901
      2 C         144.2708  142.3608  160.6049 C.3     1  UNL1        0.0359
      3 C         143.1810  143.1523  159.9446 C.3     1  UNL1        0.0737
      4 N         142.4517  144.2126  160.7153 N.3     1  UNL1       -0.2687
      5 C         142.8122  144.4813  162.1464 C.3     1  UNL1        0.1092
      6 C         143.9019  143.6898  162.8066 C.3     1  UNL1        0.1911
      7 F         144.2624  143.9585  164.2376 F       1  UNL1       -0.2343
      8 N         145.7210  141.8381  162.6961 N.3     1  UNL1       -0.2913
      9 H         146.2311  141.3619  161.9522 H       1  UNL1        0.1236
     10 C         145.3770  140.7974  163.7202 C.3     1  UNL1        0.1152
     11 O         137.9966  139.4061  165.8042 O.2     1  UNL1       -0.2707
     12 C         139.1967  139.0681  164.9702 C.2     1  UNL1        0.2718
     13 C         139.1367  137.9284  163.9968 C.3     1  UNL1        0.2898
     14 O         140.3368  137.5904  163.1628 O.3     1  UNL1       -0.4628
     15 C         141.5968  138.3922  163.3022 C.ar    1  UNL1        0.1708
     16 C         142.7969  138.0542  162.4682 C.ar    1  UNL1        0.0411
     17 C         144.0570  138.8559  162.6075 C.ar    1  UNL1        0.0193
     18 C         144.1170  139.9957  163.5809 C.ar    1  UNL1        0.0765
     19 N         142.9169  140.3337  164.4149 N.ar    1  UNL1       -0.2304
     20 C         141.6568  139.5319  164.2755 C.ar    1  UNL1        0.1682
     21 N         140.4567  139.8698  165.1095 N.am    1  UNL1       -0.2639
     22 H         140.4961  140.6179  165.7484 H       1  UNL1        0.1565
     23 C         141.3619  145.0040  160.0551 C.3     1  UNL1        0.0970
     24 C         140.0079  144.3915  159.8519 C.3     1  UNL1        0.1264
     25 N         139.2859  143.7670  161.0089 N.ar    1  UNL1       -0.2926
     26 C         139.0667  144.5520  162.2682 C.ar    1  UNL1        0.2611
     27 O         139.5696  145.9616  162.3703 O.2     1  UNL1       -0.2670
     28 C         138.3447  143.9276  163.4252 C.ar    1  UNL1        0.0623
     29 C         137.8419  142.5180  163.3230 C.ar    1  UNL1        0.0255
     30 C         138.0610  141.7330  162.0638 C.ar    1  UNL1        0.0975
     31 N         137.5582  140.3235  161.9616 N.ar    1  UNL1       -0.2392
     32 C         137.7774  139.5384  160.7024 C.ar    1  UNL1        0.1363
     33 C         138.4994  140.1629  159.5454 C.ar    1  UNL1        0.1659
     34 C         139.0023  141.5724  159.6475 C.ar    1  UNL1        0.0579
     35 C         138.7831  142.3575  160.9067 C.ar    1  UNL1        0.0832
     36 O         138.7186  139.3778  158.2861 O.3     1  UNL1       -0.4503
     37 C         140.0075  138.6394  158.0774 C.ar    1  UNL1        0.1644
     38 C         141.1639  138.8726  159.0038 C.ar    1  UNL1        0.0407
     39 C         142.4528  138.1341  158.7951 C.ar    1  UNL1        0.0238
     40 C         142.5853  137.1626  157.6600 C.ar    1  UNL1        0.0991
     41 N         141.4287  136.9294  156.7336 N.ar    1  UNL1       -0.2391
     42 C         140.1399  137.6678  156.9423 C.ar    1  UNL1        0.1362
@<TRIPOS>BOND
     1    11    12    2
     2    12    13    1
     3    13    14    1
     4    14    15    1
     5    15    16   ar
     6    16    17   ar
     7    17    18   ar
     8    18    10    1
     9    10     8    1
    10     1     8    1
    11     1     2    1
    12     2     3    1
    13     3     4    1
    14     4    23    1
    15    23    24    1
    16    24    25    1
    17    25    26   ar
    18    26    27    2
    19    26    28   ar
    20    28    29   ar
    21    29    30   ar
    22    30    31   ar
    23    31    32   ar
    24    32    33   ar
    25    33    36    1
    26    36    37    1
    27    37    38   ar
    28    38    39   ar
    29    39    40   ar
    30    40    41   ar
    31    41    42   ar
    32    33    34   ar
    33    34    35   ar
    34     4     5    1
    35     5     6    1
    36     6     7    1
    37    18    19   ar
    38    19    20   ar
    39    20    21    1
    40    21    12   am
    41    20    15   ar
    42     6     1    1
    43    35    25   ar
    44    35    30   ar
    45    42    37   ar
    46     8     9    1
    47    21    22    1
@<TRIPOS>MOLECULE
*****
 42 47 0 0 0
SMALL
GASTEIGER

@<TRIPOS>ATOM
      1 C         143.0401  143.5311  163.7380 C.3     1  UNL1        0.0901
      2 C         142.3086  144.1226  162.5697 C.3     1  UNL1        0.0359
      3 C         140.8240  144.3259  162.6393 C.3     1  UNL1        0.0737
      4 N         140.0711  143.9377  163.8772 N.3     1  UNL1       -0.2687
      5 C         140.8027  143.3461  165.0455 C.3     1  UNL1        0.1092
      6 C         142.2872  143.1429  164.9759 C.3     1  UNL1        0.1911
      7 F         143.0187  142.5514  166.1442 F       1  UNL1       -0.2343
      8 N         144.5246  143.3278  163.6684 N.3     1  UNL1       -0.2913
      9 H         144.8358  143.7305  162.7844 H       1  UNL1        0.1236
     10 C         145.0961  141.9426  163.7382 C.3     1  UNL1        0.1152
     11 O         142.9298  139.3749  156.7052 O.2     1  UNL1       -0.2707
     12 C         143.0942  139.1446  158.1783 C.2     1  UNL1        0.2718
     13 C         142.7010  137.8281  158.7801 C.3     1  UNL1        0.2898
     14 O         142.8654  137.5978  160.2531 O.3     1  UNL1       -0.4628
     15 C         143.4231  138.6840  161.1244 C.ar    1  UNL1        0.1708
     16 C         143.5875  138.4537  162.5975 C.ar    1  UNL1        0.0411
     17 C         144.1452  139.5399  163.4687 C.ar    1  UNL1        0.0193
     18 C         144.5384  140.8565  162.8670 C.ar    1  UNL1        0.0765
     19 N         144.3740  141.0868  161.3939 N.ar    1  UNL1       -0.2304
     20 C         143.8163  140.0005  160.5226 C.ar    1  UNL1        0.1682
     21 N         143.6519  140.2308  159.0495 N.am    1  UNL1       -0.2639
     22 H         143.9100  141.0949  158.6546 H       1  UNL1        0.1565
     23 C         138.5866  144.1409  163.9468 C.3     1  UNL1        0.0970
     24 C         137.6722  142.9576  164.0636 C.3     1  UNL1        0.1264
     25 N         137.9606  141.7074  163.2864 N.ar    1  UNL1       -0.2926
     26 C         137.9833  141.7448  161.7871 C.ar    1  UNL1        0.2611
     27 O         137.7177  143.0325  161.0649 O.2     1  UNL1       -0.2670
     28 C         138.2716  140.4947  161.0099 C.ar    1  UNL1        0.0623
     29 C         138.5372  139.2070  161.7321 C.ar    1  UNL1        0.0255
     30 C         138.5144  139.1696  163.2315 C.ar    1  UNL1        0.0975
     31 N         138.7800  137.8821  163.9537 N.ar    1  UNL1       -0.2392
     32 C         138.7572  137.8446  165.4531 C.ar    1  UNL1        0.1363
     33 C         138.4689  139.0948  166.2302 C.ar    1  UNL1        0.1659
     34 C         138.2034  140.3824  165.5080 C.ar    1  UNL1        0.0579
     35 C         138.2261  140.4198  164.0087 C.ar    1  UNL1        0.0832
     36 O         138.4462  139.0574  167.7296 O.3     1  UNL1       -0.4503
     37 C         139.3864  139.9222  168.5158 C.ar    1  UNL1        0.1644
     38 C         140.7370  140.2615  167.9583 C.ar    1  UNL1        0.0407
     39 C         141.6772  141.1264  168.7444 C.ar    1  UNL1        0.0238
     40 C         141.2669  141.6520  170.0881 C.ar    1  UNL1        0.0991
     41 N         139.9162  141.3126  170.6456 N.ar    1  UNL1       -0.2391
     42 C         138.9761  140.4478  169.8594 C.ar    1  UNL1        0.1362
@<TRIPOS>BOND
     1    11    12    2
     2    12    13    1
     3    13    14    1
     4    14    15    1
     5    15    16   ar
     6    16    17   ar
     7    17    18   ar
     8    18    10    1
     9    10     8    1
    10     1     8    1
    11     1     2    1
    12     2     3    1
    13     3     4    1
    14     4    23    1
    15    23    24    1
    16    24    25    1
    17    25    26   ar
    18    26    27    2
    19    26    28   ar
    20    28    29   ar
    21    29    30   ar
    22    30    31   ar
    23    31    32   ar
    24    32    33   ar
    25    33    36    1
    26    36    37    1
    27    37    38   ar
    28    38    39   ar
    29    39    40   ar
    30    40    41   ar
    31    41    42   ar
    32    33    34   ar
    33    34    35   ar
    34     4     5    1
    35     5     6    1
    36     6     7    1
    37    18    19   ar
    38    19    20   ar
    39    20    21    1
    40    21    12   am
    41    20    15   ar
    42     6     1    1
    43    35    25   ar
    44    35    30   ar
    45    42    37   ar
    46     8     9    1
    47    21    22    1
@<TRIPOS>MOLECULE
*****
 42 47 0 0 0
SMALL
GASTEIGER

@<TRIPOS>ATOM
      1 C         140.1826  138.2955  161.9345 C.3     1  UNL1        0.0901
      2 C         141.3347  138.7642  161.0962 C.3     1  UNL1        0.0359
      3 C         142.6642  139.0383  161.7346 C.3     1  UNL1        0.0737
      4 N         142.8414  138.8437  163.2113 N.3     1  UNL1       -0.2687
      5 C         141.6891  138.3750  164.0496 C.3     1  UNL1        0.1092
      6 C         140.3597  138.1009  163.4112 C.3     1  UNL1        0.1911
      7 F         139.2076  137.6323  164.2495 F       1  UNL1       -0.2343
      8 N         138.8532  138.0214  161.2960 N.3     1  UNL1       -0.2913
      9 H         139.0186  137.9459  160.2924 H       1  UNL1        0.1236
     10 C         137.7208  138.9884  161.4768 C.3     1  UNL1        0.1152
     11 O         141.3919  145.5070  159.2901 O.2     1  UNL1       -0.2707
     12 C         140.4525  144.7936  160.2167 C.2     1  UNL1        0.2718
     13 C         139.7974  145.5397  161.3411 C.3     1  UNL1        0.2898
     14 O         138.8580  144.8263  162.2677 O.3     1  UNL1       -0.4628
     15 C         138.5737  143.3669  162.0700 C.ar    1  UNL1        0.1708
     16 C         137.6343  142.6535  162.9966 C.ar    1  UNL1        0.0411
     17 C         137.3500  141.1940  162.7989 C.ar    1  UNL1        0.0193
     18 C         138.0051  140.4479  161.6745 C.ar    1  UNL1        0.0765
     19 N         138.9445  141.1613  160.7479 N.ar    1  UNL1       -0.2304
     20 C         139.2288  142.6208  160.9456 C.ar    1  UNL1        0.1682
     21 N         140.1682  143.3342  160.0190 N.am    1  UNL1       -0.2639
     22 H         140.5981  142.8445  159.2810 H       1  UNL1        0.1565
     23 C         144.1707  139.1177  163.8498 C.3     1  UNL1        0.0970
     24 C         144.3787  140.3766  164.6384 C.3     1  UNL1        0.1264
     25 N         143.9240  141.6936  164.0826 N.ar    1  UNL1       -0.2926
     26 C         144.7379  142.3839  163.0286 C.ar    1  UNL1        0.2611
     27 O         146.0065  141.7573  162.5304 O.2     1  UNL1       -0.2670
     28 C         144.2833  143.7009  162.4727 C.ar    1  UNL1        0.0623
     29 C         143.0148  144.3275  162.9709 C.ar    1  UNL1        0.0255
     30 C         142.2008  143.6372  164.0249 C.ar    1  UNL1        0.0975
     31 N         140.9323  144.2637  164.5231 N.ar    1  UNL1       -0.2392
     32 C         140.1184  143.5734  165.5771 C.ar    1  UNL1        0.1363
     33 C         140.5730  142.2565  166.1329 C.ar    1  UNL1        0.1659
     34 C         141.8416  141.6298  165.6348 C.ar    1  UNL1        0.0579
     35 C         142.6555  142.3202  164.5808 C.ar    1  UNL1        0.0832
     36 O         139.7591  141.5661  167.1870 O.3     1  UNL1       -0.4503
     37 C         140.2228  141.5678  168.6135 C.ar    1  UNL1        0.1644
     38 C         141.3092  142.5063  169.0479 C.ar    1  UNL1        0.0407
     39 C         141.7730  142.5080  170.4744 C.ar    1  UNL1        0.0238
     40 C         141.1503  141.5710  171.4666 C.ar    1  UNL1        0.0991
     41 N         140.0638  140.6324  171.0321 N.ar    1  UNL1       -0.2391
     42 C         139.6001  140.6308  169.6056 C.ar    1  UNL1        0.1362
@<TRIPOS>BOND
     1    11    12    2
     2    12    13    1
     3    13    14    1
     4    14    15    1
     5    15    16   ar
     6    16    17   ar
     7    17    18   ar
     8    18    10    1
     9    10     8    1
    10     1     8    1
    11     1     2    1
    12     2     3    1
    13     3     4    1
    14     4    23    1
    15    23    24    1
    16    24    25    1
    17    25    26   ar
    18    26    27    2
    19    26    28   ar
    20    28    29   ar
    21    29    30   ar
    22    30    31   ar
    23    31    32   ar
    24    32    33   ar
    25    33    36    1
    26    36    37    1
    27    37    38   ar
    28    38    39   ar
    29    39    40   ar
    30    40    41   ar
    31    41    42   ar
    32    33    34   ar
    33    34    35   ar
    34     4     5    1
    35     5     6    1
    36     6     7    1
    37    18    19   ar
    38    19    20   ar
    39    20    21    1
    40    21    12   am
    41    20    15   ar
    42     6     1    1
    43    35    25   ar
    44    35    30   ar
    45    42    37   ar
    46     8     9    1
    47    21    22    1
@<TRIPOS>MOLECULE
*****
 42 47 0 0 0
SMALL
GASTEIGER

@<TRIPOS>ATOM
      1 C         143.8090  139.6880  162.8394 C.3     1  UNL1        0.0901
      2 C         143.1514  138.9476  161.7128 C.3     1  UNL1        0.0359
      3 C         141.8300  138.2716  161.9298 C.3     1  UNL1        0.0737
      4 N         141.1663  138.3360  163.2735 N.3     1  UNL1       -0.2687
      5 C         141.8240  139.0765  164.4001 C.3     1  UNL1        0.1092
      6 C         143.1454  139.7524  164.1830 C.3     1  UNL1        0.1911
      7 F         143.8030  140.4928  165.3096 F       1  UNL1       -0.2343
      8 N         145.1304  140.3639  162.6223 N.3     1  UNL1       -0.2913
      9 H         145.7051  140.1560  163.4389 H       1  UNL1        0.1236
     10 C         145.1886  141.8489  162.4185 C.3     1  UNL1        0.1152
     11 O         139.1844  146.6680  161.2040 O.2     1  UNL1       -0.2707
     12 C         140.2243  145.7281  160.6700 C.2     1  UNL1        0.2718
     13 C         140.3029  145.4547  159.1972 C.3     1  UNL1        0.2898
     14 O         141.3428  144.5149  158.6633 O.3     1  UNL1       -0.4628
     15 C         142.3043  143.8484  159.6021 C.ar    1  UNL1        0.1708
     16 C         143.3442  142.9085  159.0681 C.ar    1  UNL1        0.0411
     17 C         144.3057  142.2420  160.0069 C.ar    1  UNL1        0.0193
     18 C         144.2272  142.5154  161.4797 C.ar    1  UNL1        0.0765
     19 N         143.1872  143.4553  162.0137 N.ar    1  UNL1       -0.2304
     20 C         142.2258  144.1218  161.0748 C.ar    1  UNL1        0.1682
     21 N         141.1858  145.0616  161.6088 N.am    1  UNL1       -0.2639
     22 H         141.1343  145.2411  162.5754 H       1  UNL1        0.1565
     23 C         139.8450  137.6601  163.4905 C.3     1  UNL1        0.0970
     24 C         138.5942  138.2567  162.9166 C.3     1  UNL1        0.1264
     25 N         138.3656  139.7373  162.9936 N.ar    1  UNL1       -0.2926
     26 C         138.0979  140.3868  164.3189 C.ar    1  UNL1        0.2611
     27 O         138.0588  139.5559  165.5672 O.2     1  UNL1       -0.2670
     28 C         137.8694  141.8673  164.3960 C.ar    1  UNL1        0.0623
     29 C         137.9084  142.6982  163.1478 C.ar    1  UNL1        0.0255
     30 C         138.1761  142.0486  161.8225 C.ar    1  UNL1        0.0975
     31 N         138.2152  142.8795  160.5742 N.ar    1  UNL1       -0.2392
     32 C         138.4828  142.2299  159.2490 C.ar    1  UNL1        0.1363
     33 C         138.7114  140.7495  159.1719 C.ar    1  UNL1        0.1659
     34 C         138.6723  139.9185  160.4201 C.ar    1  UNL1        0.0579
     35 C         138.4047  140.5681  161.7454 C.ar    1  UNL1        0.0832
     36 O         138.9791  140.0999  157.8466 O.3     1  UNL1       -0.4503
     37 C         140.1862  139.2272  157.6693 C.ar    1  UNL1        0.1644
     38 C         141.5360  139.7171  158.1026 C.ar    1  UNL1        0.0407
     39 C         142.7432  138.8444  157.9252 C.ar    1  UNL1        0.0238
     40 C         142.6003  137.4818  157.3146 C.ar    1  UNL1        0.0991
     41 N         141.2503  136.9919  156.8813 N.ar    1  UNL1       -0.2391
     42 C         140.0433  137.8646  157.0586 C.ar    1  UNL1        0.1362
@<TRIPOS>BOND
     1    11    12    2
     2    12    13    1
     3    13    14    1
     4    14    15    1
     5    15    16   ar
     6    16    17   ar
     7    17    18   ar
     8    18    10    1
     9    10     8    1
    10     1     8    1
    11     1     2    1
    12     2     3    1
    13     3     4    1
    14     4    23    1
    15    23    24    1
    16    24    25    1
    17    25    26   ar
    18    26    27    2
    19    26    28   ar
    20    28    29   ar
    21    29    30   ar
    22    30    31   ar
    23    31    32   ar
    24    32    33   ar
    25    33    36    1
    26    36    37    1
    27    37    38   ar
    28    38    39   ar
    29    39    40   ar
    30    40    41   ar
    31    41    42   ar
    32    33    34   ar
    33    34    35   ar
    34     4     5    1
    35     5     6    1
    36     6     7    1
    37    18    19   ar
    38    19    20   ar
    39    20    21    1
    40    21    12   am
    41    20    15   ar
    42     6     1    1
    43    35    25   ar
    44    35    30   ar
    45    42    37   ar
    46     8     9    1
    47    21    22    1
@<TRIPOS>MOLECULE
*****
 42 47 0 0 0
SMALL
GASTEIGER

@<TRIPOS>ATOM
      1 C         140.4741  145.0071  162.6030 C.3     1  UNL1        0.0901
      2 C         141.3445  144.9164  163.8212 C.3     1  UNL1        0.0359
      3 C         142.7498  144.4054  163.7026 C.3     1  UNL1        0.0737
      4 N         143.2846  143.9851  162.3656 N.3     1  UNL1       -0.2687
      5 C         142.4142  144.0759  161.1474 C.3     1  UNL1        0.1092
      6 C         141.0089  144.5869  161.2661 C.3     1  UNL1        0.1911
      7 F         140.1385  144.6776  160.0479 F       1  UNL1       -0.2343
      8 N         139.0688  145.5181  162.7217 N.3     1  UNL1       -0.2913
      9 H         139.0796  146.2461  163.4360 H       1  UNL1        0.1236
     10 C         137.9563  144.5774  163.0788 C.3     1  UNL1        0.1152
     11 O         138.8010  137.2055  165.4646 O.2     1  UNL1       -0.2707
     12 C         138.6427  138.2015  164.3542 C.2     1  UNL1        0.2718
     13 C         138.6076  137.7361  162.9286 C.3     1  UNL1        0.2898
     14 O         138.4493  138.7321  161.8182 O.3     1  UNL1       -0.4628
     15 C         138.3261  140.1934  162.1334 C.ar    1  UNL1        0.1708
     16 C         138.1678  141.1894  161.0230 C.ar    1  UNL1        0.0411
     17 C         138.0445  142.6507  161.3381 C.ar    1  UNL1        0.0193
     18 C         138.0796  143.1161  162.7637 C.ar    1  UNL1        0.0765
     19 N         138.2379  142.1201  163.8741 N.ar    1  UNL1       -0.2304
     20 C         138.3611  140.6587  163.5589 C.ar    1  UNL1        0.1682
     21 N         138.5194  139.6628  164.6693 N.am    1  UNL1       -0.2639
     22 H         138.5424  139.9682  165.6049 H       1  UNL1        0.1565
     23 C         144.6899  143.4742  162.2470 C.3     1  UNL1        0.0970
     24 C         145.0529  142.1373  162.8222 C.3     1  UNL1        0.1264
     25 N         144.0223  141.0503  162.9020 N.ar    1  UNL1       -0.2926
     26 C         143.7050  140.2272  161.6888 C.ar    1  UNL1        0.2611
     27 O         144.4182  140.4912  160.3958 O.2     1  UNL1       -0.2670
     28 C         142.6745  139.1402  161.7684 C.ar    1  UNL1        0.0623
     29 C         141.9612  138.8762  163.0614 C.ar    1  UNL1        0.0255
     30 C         142.2785  139.6993  164.2746 C.ar    1  UNL1        0.0975
     31 N         141.5653  139.4353  165.5675 N.ar    1  UNL1       -0.2392
     32 C         141.8826  140.2584  166.7807 C.ar    1  UNL1        0.1363
     33 C         142.9131  141.3454  166.7010 C.ar    1  UNL1        0.1659
     34 C         143.6264  141.6094  165.4081 C.ar    1  UNL1        0.0579
     35 C         143.3091  140.7863  164.1949 C.ar    1  UNL1        0.0832
     36 O         143.2304  142.1684  167.9142 O.3     1  UNL1       -0.4503
     37 C         142.2809  142.1899  169.0753 C.ar    1  UNL1        0.1644
     38 C         141.0482  143.0426  169.0205 C.ar    1  UNL1        0.0407
     39 C         140.0987  143.0641  170.1816 C.ar    1  UNL1        0.0238
     40 C         140.3820  142.2327  171.3975 C.ar    1  UNL1        0.0991
     41 N         141.6148  141.3798  171.4523 N.ar    1  UNL1       -0.2391
     42 C         142.5643  141.3584  170.2913 C.ar    1  UNL1        0.1362
@<TRIPOS>BOND
     1    11    12    2
     2    12    13    1
     3    13    14    1
     4    14    15    1
     5    15    16   ar
     6    16    17   ar
     7    17    18   ar
     8    18    10    1
     9    10     8    1
    10     1     8    1
    11     1     2    1
    12     2     3    1
    13     3     4    1
    14     4    23    1
    15    23    24    1
    16    24    25    1
    17    25    26   ar
    18    26    27    2
    19    26    28   ar
    20    28    29   ar
    21    29    30   ar
    22    30    31   ar
    23    31    32   ar
    24    32    33   ar
    25    33    36    1
    26    36    37    1
    27    37    38   ar
    28    38    39   ar
    29    39    40   ar
    30    40    41   ar
    31    41    42   ar
    32    33    34   ar
    33    34    35   ar
    34     4     5    1
    35     5     6    1
    36     6     7    1
    37    18    19   ar
    38    19    20   ar
    39    20    21    1
    40    21    12   am
    41    20    15   ar
    42     6     1    1
    43    35    25   ar
    44    35    30   ar
    45    42    37   ar
    46     8     9    1
    47    21    22    1
