@<TRIPOS>MOLECULE
*****
 52 59 0 0 0
SMALL
GASTEIGER

@<TRIPOS>ATOM
      1 C         142.0095  139.4439  158.3871 C.ar    1  UNL1       -0.0061
      2 C         141.4613  140.8366  158.4865 C.ar    1  UNL1       -0.0029
      3 C         140.2312  141.2151  157.7161 C.ar    1  UNL1        0.0012
      4 C         139.5493  140.2010  156.8463 C.ar    1  UNL1        0.0177
      5 C         140.0975  138.8083  156.7469 C.ar    1  UNL1        0.0012
      6 C         141.3276  138.4298  157.5173 C.ar    1  UNL1       -0.0029
      7 C         138.3191  140.5796  156.0759 C.ar    1  UNL1        0.0829
      8 N         136.9608  140.2845  156.6396 N.ar    1  UNL1       -0.2264
      9 C         135.7306  140.6631  155.8691 C.ar    1  UNL1        0.1666
     10 N         134.3723  140.3679  156.4328 N.ar    1  UNL1       -0.1945
     11 C         133.1422  140.7465  155.6624 C.ar    1  UNL1        0.2216
     12 N         133.2705  141.4203  154.3283 N.ar    1  UNL1       -0.2120
     13 C         134.6289  141.7154  153.7647 C.ar    1  UNL1        0.1048
     14 C         135.8589  141.3368  154.5351 C.ar    1  UNL1        0.0551
     15 C         137.2174  141.6320  153.9715 C.ar    1  UNL1        0.0061
     16 C         138.4474  141.2534  154.7419 C.ar    1  UNL1        0.0179
     17 N         131.7838  140.4514  156.2260 N.pl3   1  UNL1       -0.2753
     18 C         131.6386  139.4921  157.3699 C.3     1  UNL1        0.1109
     19 C         130.2803  139.1969  157.9335 C.3     1  UNL1        0.0940
     20 N         129.0669  139.8611  157.3532 N.3     1  UNL1       -0.2677
     21 C         129.2121  140.8205  156.2093 C.3     1  UNL1        0.0940
     22 C         130.5705  141.1156  155.6456 C.3     1  UNL1        0.1109
     23 C         127.7086  139.5660  157.9168 C.3     1  UNL1        0.1043
     24 C         127.2276  140.2958  159.1359 C.3     1  UNL1        0.1544
     25 O         127.9752  140.1683  160.4300 O.3     1  UNL1       -0.3805
     26 H         127.9115  139.2554  160.7516 H       1  UNL1        0.2105
     27 C         139.8059  141.5485  154.1783 C.ar    1  UNL1        0.0015
     28 C         140.4416  142.8863  154.4151 C.ar    1  UNL1        0.0000
     29 C         141.8000  143.1815  153.8516 C.ar    1  UNL1        0.0000
     30 C         142.5226  142.1388  153.0512 C.ar    1  UNL1        0.0000
     31 C         141.8869  140.8010  152.8144 C.ar    1  UNL1        0.0000
     32 C         140.5285  140.5059  153.3779 C.ar    1  UNL1        0.0000
     33 C         143.2396  139.0653  159.1575 C.3     1  UNL1        0.0991
     34 C         143.1589  139.0435  163.6567 C.3     1  UNL1        0.0613
     35 C         142.3105  138.0754  162.8867 C.3     1  UNL1        0.0249
     36 C         142.3374  138.0827  161.3869 C.3     1  UNL1        0.0728
     37 N         143.2127  139.0581  160.6572 N.3     1  UNL1       -0.2689
     38 C         144.0611  140.0262  161.4273 C.3     1  UNL1        0.0728
     39 C         144.0342  140.0189  162.9270 C.3     1  UNL1        0.0249
     40 C         142.6177  139.6072  167.4586 C.ar    1  UNL1        0.1633
     41 N         143.5634  138.4429  167.4700 N.ar    1  UNL1       -0.1293
     42 N         143.8812  138.0900  166.0471 N.ar    1  UNL1       -0.1336
     43 C         143.1320  139.0362  165.1564 C.ar    1  UNL1        0.1396
     44 N         142.3511  139.9739  166.0288 N.ar    1  UNL1       -0.3246
     45 H         141.7663  140.7021  165.7175 H       1  UNL1        0.1686
     46 O         140.3072  142.3213  172.2852 O.co2   1  UNL1       -0.6187
     47 N         140.8848  141.6428  171.0786 N.ar    1  UNL1       -0.1519
     48 C         142.3217  141.8647  170.7093 C.ar    1  UNL1        0.3019
     49 C         142.8992  141.1861  169.5026 C.ar    1  UNL1        0.0802
     50 C         142.0401  140.2857  168.6652 C.ar    1  UNL1        0.0480
     51 C         140.6033  140.0639  169.0346 C.ar    1  UNL1        0.0802
     52 C         140.0257  140.7424  170.2412 C.ar    1  UNL1        0.3019
@<TRIPOS>UNITY_ATOM_ATTR
46 1
charge -1
47 1
charge 1
@<TRIPOS>BOND
     1    46    47    1
     2    47    48   ar
     3    48    49   ar
     4    49    50   ar
     5    50    40    1
     6    40    41   ar
     7    41    42   ar
     8    42    43   ar
     9    43    34    1
    10    34    35    1
    11    35    36    1
    12    36    37    1
    13    37    33    1
    14    33     1    1
    15     1     2   ar
    16     2     3   ar
    17     3     4   ar
    18     4     7    1
    19     7     8   ar
    20     8     9   ar
    21     9    10   ar
    22    10    11   ar
    23    11    17    1
    24    17    18    1
    25    18    19    1
    26    19    20    1
    27    20    23    1
    28    23    24    1
    29    24    25    1
    30    20    21    1
    31    21    22    1
    32    11    12   ar
    33    12    13   ar
    34    13    14   ar
    35    14    15   ar
    36    15    16   ar
    37    16    27    1
    38    27    28   ar
    39    28    29   ar
    40    29    30   ar
    41    30    31   ar
    42    31    32   ar
    43     4     5   ar
    44     5     6   ar
    45    37    38    1
    46    38    39    1
    47    43    44   ar
    48    50    51   ar
    49    51    52   ar
    50    52    47   ar
    51    44    40   ar
    52    39    34    1
    53     6     1   ar
    54    16     7   ar
    55    32    27   ar
    56    14     9   ar
    57    22    17    1
    58    25    26    1
    59    44    45    1
@<TRIPOS>MOLECULE
*****
 52 59 0 0 0
SMALL
GASTEIGER

@<TRIPOS>ATOM
      1 C         142.0141  139.4129  158.3784 C.ar    1  UNL1       -0.0061
      2 C         141.2927  138.3892  157.5527 C.ar    1  UNL1       -0.0029
      3 C         140.0619  138.7751  156.7872 C.ar    1  UNL1        0.0012
      4 C         139.5524  140.1846  156.8473 C.ar    1  UNL1        0.0177
      5 C         140.2737  141.2083  157.6730 C.ar    1  UNL1        0.0012
      6 C         141.5045  140.8224  158.4385 C.ar    1  UNL1       -0.0029
      7 C         138.3215  140.5705  156.0818 C.ar    1  UNL1        0.0829
      8 N         136.9638  140.2601  156.6388 N.ar    1  UNL1       -0.2264
      9 C         135.7328  140.6460  155.8732 C.ar    1  UNL1        0.1666
     10 N         134.3751  140.3357  156.4302 N.ar    1  UNL1       -0.1945
     11 C         133.1443  140.7215  155.6646 C.ar    1  UNL1        0.2216
     12 N         133.2712  141.4177  154.3420 N.ar    1  UNL1       -0.2120
     13 C         134.6289  141.7280  153.7850 C.ar    1  UNL1        0.1048
     14 C         135.8597  141.3422  154.5506 C.ar    1  UNL1        0.0551
     15 C         137.2175  141.6525  153.9936 C.ar    1  UNL1        0.0061
     16 C         138.4483  141.2667  154.7592 C.ar    1  UNL1        0.0179
     17 N         131.7865  140.4112  156.2216 N.pl3   1  UNL1       -0.2753
     18 C         130.5703  141.0739  155.6457 C.3     1  UNL1        0.1109
     19 C         129.2126  140.7636  156.2027 C.3     1  UNL1        0.0940
     20 N         129.0710  139.7906  157.3355 N.3     1  UNL1       -0.2677
     21 C         130.2872  139.1279  157.9114 C.3     1  UNL1        0.0940
     22 C         131.6450  139.4382  157.3544 C.3     1  UNL1        0.1109
     23 C         127.7133  139.4803  157.8925 C.3     1  UNL1        0.1043
     24 C         127.2909  140.0641  159.2081 C.3     1  UNL1        0.1544
     25 O         128.2136  139.9977  160.3888 O.3     1  UNL1       -0.3805
     26 H         128.3343  139.0723  160.6532 H       1  UNL1        0.2105
     27 C         139.8061  141.5770  154.2022 C.ar    1  UNL1        0.0015
     28 C         140.6027  140.5014  153.5249 C.ar    1  UNL1        0.0000
     29 C         141.9604  140.8117  152.9680 C.ar    1  UNL1        0.0000
     30 C         142.5216  142.1975  153.0882 C.ar    1  UNL1        0.0000
     31 C         141.7250  143.2731  153.7654 C.ar    1  UNL1        0.0000
     32 C         140.3673  142.9628  154.3224 C.ar    1  UNL1        0.0000
     33 C         143.2450  139.0270  159.1440 C.3     1  UNL1        0.0991
     34 C         143.1856  139.0181  163.6435 C.3     1  UNL1        0.0613
     35 C         142.3293  138.0515  162.8803 C.3     1  UNL1        0.0249
     36 C         142.3492  138.0545  161.3803 C.3     1  UNL1        0.0728
     37 N         143.2252  139.0240  160.6438 N.3     1  UNL1       -0.2689
     38 C         144.0814  139.9906  161.4071 C.3     1  UNL1        0.0728
     39 C         144.0616  139.9876  162.9069 C.3     1  UNL1        0.0249
     40 C         142.6534  139.5853  167.4462 C.ar    1  UNL1        0.1633
     41 N         143.6172  138.4359  167.4567 N.ar    1  UNL1       -0.1293
     42 N         143.9339  138.0835  166.0335 N.ar    1  UNL1       -0.1336
     43 C         143.1658  139.0151  165.1434 C.ar    1  UNL1        0.1396
     44 N         142.3744  139.9432  166.0165 N.ar    1  UNL1       -0.3246
     45 H         141.7769  140.6613  165.7058 H       1  UNL1        0.1686
     46 O         140.3233  142.2781  172.2753 O.co2   1  UNL1       -0.6187
     47 N         140.9059  141.6049  171.0680 N.ar    1  UNL1       -0.1519
     48 C         140.0139  140.8525  170.1253 C.ar    1  UNL1        0.3019
     49 C         140.5966  140.1793  168.9181 C.ar    1  UNL1        0.0802
     50 C         142.0709  140.2585  168.6535 C.ar    1  UNL1        0.0480
     51 C         142.9627  141.0108  169.5961 C.ar    1  UNL1        0.0802
     52 C         142.3802  141.6840  170.8034 C.ar    1  UNL1        0.3019
@<TRIPOS>UNITY_ATOM_ATTR
46 1
charge -1
47 1
charge 1
@<TRIPOS>BOND
     1    46    47    1
     2    47    48   ar
     3    48    49   ar
     4    49    50   ar
     5    50    40    1
     6    40    41   ar
     7    41    42   ar
     8    42    43   ar
     9    43    34    1
    10    34    35    1
    11    35    36    1
    12    36    37    1
    13    37    33    1
    14    33     1    1
    15     1     2   ar
    16     2     3   ar
    17     3     4   ar
    18     4     7    1
    19     7     8   ar
    20     8     9   ar
    21     9    10   ar
    22    10    11   ar
    23    11    17    1
    24    17    18    1
    25    18    19    1
    26    19    20    1
    27    20    23    1
    28    23    24    1
    29    24    25    1
    30    20    21    1
    31    21    22    1
    32    11    12   ar
    33    12    13   ar
    34    13    14   ar
    35    14    15   ar
    36    15    16   ar
    37    16    27    1
    38    27    28   ar
    39    28    29   ar
    40    29    30   ar
    41    30    31   ar
    42    31    32   ar
    43     4     5   ar
    44     5     6   ar
    45    37    38    1
    46    38    39    1
    47    43    44   ar
    48    50    51   ar
    49    51    52   ar
    50    52    47   ar
    51    44    40   ar
    52    39    34    1
    53     6     1   ar
    54    16     7   ar
    55    32    27   ar
    56    14     9   ar
    57    22    17    1
    58    25    26    1
    59    44    45    1
@<TRIPOS>MOLECULE
*****
 52 59 0 0 0
SMALL
GASTEIGER

@<TRIPOS>ATOM
      1 C         141.9431  139.0753  155.9626 C.ar    1  UNL1       -0.0061
      2 C         143.1514  139.8212  156.4460 C.ar    1  UNL1       -0.0029
      3 C         143.0164  140.8397  157.5388 C.ar    1  UNL1        0.0012
      4 C         141.6732  141.1124  158.1483 C.ar    1  UNL1        0.0177
      5 C         140.4649  140.3665  157.6648 C.ar    1  UNL1        0.0012
      6 C         140.5999  139.3480  156.5720 C.ar    1  UNL1       -0.0029
      7 C         141.5382  142.1310  159.2412 C.ar    1  UNL1        0.0829
      8 N         141.6510  141.7103  160.6765 N.ar    1  UNL1       -0.2264
      9 C         141.5160  142.7289  161.7694 C.ar    1  UNL1        0.1666
     10 N         141.6288  142.3083  163.2048 N.ar    1  UNL1       -0.1945
     11 C         141.4938  143.3269  164.2976 C.ar    1  UNL1        0.2216
     12 N         141.2461  144.7661  163.9550 N.ar    1  UNL1       -0.2120
     13 C         141.1334  145.1867  162.5197 C.ar    1  UNL1        0.1048
     14 C         141.2683  144.1681  161.4269 C.ar    1  UNL1        0.0551
     15 C         141.1556  144.5887  159.9914 C.ar    1  UNL1        0.0061
     16 C         141.2905  143.5702  158.8986 C.ar    1  UNL1        0.0179
     17 N         141.6066  142.9062  165.7330 N.pl3   1  UNL1       -0.2753
     18 C         140.3882  142.8907  166.6079 C.3     1  UNL1        0.1109
     19 C         140.5009  142.4701  168.0433 C.3     1  UNL1        0.0940
     20 N         141.8320  142.0651  168.6039 N.3     1  UNL1       -0.2677
     21 C         143.0504  142.0806  167.7290 C.3     1  UNL1        0.0940
     22 C         142.9376  142.5012  166.2935 C.3     1  UNL1        0.1109
     23 C         141.9447  141.6445  170.0392 C.3     1  UNL1        0.1043
     24 C         140.7082  141.4832  170.8728 C.3     1  UNL1        0.1544
     25 O         140.6139  142.1521  172.2121 O.3     1  UNL1       -0.3805
     26 H         141.2675  141.7635  172.8143 H       1  UNL1        0.2105
     27 C         141.1778  143.9908  157.4631 C.ar    1  UNL1        0.0015
     28 C         142.3994  144.4315  156.7126 C.ar    1  UNL1        0.0000
     29 C         142.2867  144.8521  155.2772 C.ar    1  UNL1        0.0000
     30 C         140.9524  144.8320  154.5924 C.ar    1  UNL1        0.0000
     31 C         139.7307  144.3912  155.3429 C.ar    1  UNL1        0.0000
     32 C         139.8434  143.9707  156.7783 C.ar    1  UNL1        0.0000
     33 C         142.0781  138.0567  154.8697 C.3     1  UNL1        0.0991
     34 C         142.5385  133.7002  155.8986 C.3     1  UNL1        0.0613
     35 C         142.9955  134.7517  156.8659 C.3     1  UNL1        0.0249
     36 C         142.8420  136.2039  156.5229 C.3     1  UNL1        0.0728
     37 N         142.2315  136.6046  155.2127 N.3     1  UNL1       -0.2689
     38 C         141.7745  135.5531  154.2454 C.3     1  UNL1        0.0728
     39 C         141.9279  134.1010  154.5884 C.3     1  UNL1        0.0249
     40 C         143.2672  130.2009  157.4115 C.ar    1  UNL1        0.1633
     41 N         142.5889  129.8259  156.1272 N.ar    1  UNL1       -0.1293
     42 N         142.2334  131.0911  155.4042 N.ar    1  UNL1       -0.1336
     43 C         142.6919  132.2481  156.2416 C.ar    1  UNL1        0.1396
     44 N         143.3308  131.6979  157.4822 N.ar    1  UNL1       -0.3246
     45 H         143.7230  132.2265  158.2143 H       1  UNL1        0.1686
     46 O         145.3583  126.3833  161.5411 O.co2   1  UNL1       -0.6187
     47 N         144.8355  127.3377  160.5087 N.ar    1  UNL1       -0.1519
     48 C         143.3565  127.5045  160.3222 C.ar    1  UNL1        0.3019
     49 C         142.8338  128.4590  159.2898 C.ar    1  UNL1        0.0802
     50 C         143.7900  129.2465  158.4439 C.ar    1  UNL1        0.0480
     51 C         145.2689  129.0796  158.6305 C.ar    1  UNL1        0.0802
     52 C         145.7917  128.1252  159.6628 C.ar    1  UNL1        0.3019
@<TRIPOS>UNITY_ATOM_ATTR
46 1
charge -1
47 1
charge 1
@<TRIPOS>BOND
     1    46    47    1
     2    47    48   ar
     3    48    49   ar
     4    49    50   ar
     5    50    40    1
     6    40    41   ar
     7    41    42   ar
     8    42    43   ar
     9    43    34    1
    10    34    35    1
    11    35    36    1
    12    36    37    1
    13    37    33    1
    14    33     1    1
    15     1     2   ar
    16     2     3   ar
    17     3     4   ar
    18     4     7    1
    19     7     8   ar
    20     8     9   ar
    21     9    10   ar
    22    10    11   ar
    23    11    17    1
    24    17    18    1
    25    18    19    1
    26    19    20    1
    27    20    23    1
    28    23    24    1
    29    24    25    1
    30    20    21    1
    31    21    22    1
    32    11    12   ar
    33    12    13   ar
    34    13    14   ar
    35    14    15   ar
    36    15    16   ar
    37    16    27    1
    38    27    28   ar
    39    28    29   ar
    40    29    30   ar
    41    30    31   ar
    42    31    32   ar
    43     4     5   ar
    44     5     6   ar
    45    37    38    1
    46    38    39    1
    47    43    44   ar
    48    50    51   ar
    49    51    52   ar
    50    52    47   ar
    51    44    40   ar
    52    39    34    1
    53     6     1   ar
    54    16     7   ar
    55    32    27   ar
    56    14     9   ar
    57    22    17    1
    58    25    26    1
    59    44    45    1
@<TRIPOS>MOLECULE
*****
 52 59 0 0 0
SMALL
GASTEIGER

@<TRIPOS>ATOM
      1 C         138.0704  141.7371  155.5512 C.ar    1  UNL1       -0.0061
      2 C         139.0598  140.6289  155.7578 C.ar    1  UNL1       -0.0029
      3 C         140.1859  140.8011  156.7336 C.ar    1  UNL1        0.0012
      4 C         140.3225  142.0816  157.5028 C.ar    1  UNL1        0.0177
      5 C         139.3330  143.1898  157.2963 C.ar    1  UNL1        0.0012
      6 C         138.2070  143.0176  156.3204 C.ar    1  UNL1       -0.0029
      7 C         141.4486  142.2538  158.4787 C.ar    1  UNL1        0.0829
      8 N         141.2397  141.9332  159.9291 N.ar    1  UNL1       -0.2264
      9 C         142.3659  142.1054  160.9050 C.ar    1  UNL1        0.1666
     10 N         142.1570  141.7849  162.3553 N.ar    1  UNL1       -0.1945
     11 C         143.2831  141.9571  163.3311 C.ar    1  UNL1        0.2216
     12 N         144.6180  142.4498  162.8566 N.ar    1  UNL1       -0.2120
     13 C         144.8269  142.7703  161.4062 C.ar    1  UNL1        0.1048
     14 C         143.7008  142.5981  160.4304 C.ar    1  UNL1        0.0551
     15 C         143.9096  142.9187  158.9800 C.ar    1  UNL1        0.0061
     16 C         142.7835  142.7465  158.0042 C.ar    1  UNL1        0.0179
     17 N         143.0743  141.6366  164.7816 N.pl3   1  UNL1       -0.2753
     18 C         143.4208  142.6506  165.8312 C.3     1  UNL1        0.1109
     19 C         143.2121  142.3301  167.2816 C.3     1  UNL1        0.0940
     20 N         142.6568  140.9955  167.6824 N.3     1  UNL1       -0.2677
     21 C         142.3103  139.9815  166.6328 C.3     1  UNL1        0.0940
     22 C         142.5191  140.3020  165.1824 C.3     1  UNL1        0.1109
     23 C         142.4480  140.6751  169.1328 C.3     1  UNL1        0.1043
     24 C         141.9627  139.3148  169.5381 C.3     1  UNL1        0.1544
     25 O         142.9018  138.3494  170.1984 O.3     1  UNL1       -0.3805
     26 H         143.5963  138.0938  169.5713 H       1  UNL1        0.2105
     27 C         142.9923  143.0670  156.5537 C.ar    1  UNL1        0.0015
     28 C         143.5900  142.0408  155.6374 C.ar    1  UNL1        0.0000
     29 C         143.7988  142.3613  154.1870 C.ar    1  UNL1        0.0000
     30 C         143.4099  143.7080  153.6529 C.ar    1  UNL1        0.0000
     31 C         142.8122  144.7341  154.5693 C.ar    1  UNL1        0.0000
     32 C         142.6034  144.4137  156.0197 C.ar    1  UNL1        0.0000
     33 C         136.9442  141.5649  154.5753 C.3     1  UNL1        0.0991
     34 C         132.8064  140.6055  156.0610 C.3     1  UNL1        0.0613
     35 C         134.0054  140.1915  156.8615 C.3     1  UNL1        0.0249
     36 C         135.3848  140.5114  156.3662 C.3     1  UNL1        0.0728
     37 N         135.5650  141.2451  155.0705 N.3     1  UNL1       -0.2689
     38 C         134.3659  141.6591  154.2699 C.3     1  UNL1        0.0728
     39 C         132.9866  141.3393  154.7651 C.3     1  UNL1        0.0249
     40 C         129.5992  139.4399  157.9104 C.ar    1  UNL1        0.1633
     41 N         129.0099  140.1472  156.7261 N.ar    1  UNL1       -0.1293
     42 N         130.1396  140.6699  155.8891 N.ar    1  UNL1       -0.1336
     43 C         131.4271  140.2857  156.5562 C.ar    1  UNL1        0.1396
     44 N         131.0931  139.5255  157.8054 N.ar    1  UNL1       -0.3246
     45 H         131.7406  139.1489  158.4442 H       1  UNL1        0.1686
     46 O         126.5210  136.7421  162.2976 O.co2   1  UNL1       -0.6187
     47 N         127.2906  137.4165  161.2008 N.ar    1  UNL1       -0.1519
     48 C         127.8344  136.6087  160.0598 C.ar    1  UNL1        0.3019
     49 C         128.6039  137.2832  158.9631 C.ar    1  UNL1        0.0802
     50 C         128.8297  138.7655  159.0072 C.ar    1  UNL1        0.0480
     51 C         128.2858  139.5732  160.1481 C.ar    1  UNL1        0.0802
     52 C         127.5163  138.8988  161.2449 C.ar    1  UNL1        0.3019
@<TRIPOS>UNITY_ATOM_ATTR
46 1
charge -1
47 1
charge 1
@<TRIPOS>BOND
     1    46    47    1
     2    47    48   ar
     3    48    49   ar
     4    49    50   ar
     5    50    40    1
     6    40    41   ar
     7    41    42   ar
     8    42    43   ar
     9    43    34    1
    10    34    35    1
    11    35    36    1
    12    36    37    1
    13    37    33    1
    14    33     1    1
    15     1     2   ar
    16     2     3   ar
    17     3     4   ar
    18     4     7    1
    19     7     8   ar
    20     8     9   ar
    21     9    10   ar
    22    10    11   ar
    23    11    17    1
    24    17    18    1
    25    18    19    1
    26    19    20    1
    27    20    23    1
    28    23    24    1
    29    24    25    1
    30    20    21    1
    31    21    22    1
    32    11    12   ar
    33    12    13   ar
    34    13    14   ar
    35    14    15   ar
    36    15    16   ar
    37    16    27    1
    38    27    28   ar
    39    28    29   ar
    40    29    30   ar
    41    30    31   ar
    42    31    32   ar
    43     4     5   ar
    44     5     6   ar
    45    37    38    1
    46    38    39    1
    47    43    44   ar
    48    50    51   ar
    49    51    52   ar
    50    52    47   ar
    51    44    40   ar
    52    39    34    1
    53     6     1   ar
    54    16     7   ar
    55    32    27   ar
    56    14     9   ar
    57    22    17    1
    58    25    26    1
    59    44    45    1
@<TRIPOS>MOLECULE
*****
 52 59 0 0 0
SMALL
GASTEIGER

@<TRIPOS>ATOM
      1 C         138.0993  140.9261  158.5125 C.ar    1  UNL1       -0.0061
      2 C         139.4761  141.4950  158.6879 C.ar    1  UNL1       -0.0029
      3 C         140.0026  142.5004  157.7071 C.ar    1  UNL1        0.0012
      4 C         139.1523  142.9368  156.5509 C.ar    1  UNL1        0.0177
      5 C         137.7756  142.3678  156.3756 C.ar    1  UNL1        0.0012
      6 C         137.2491  141.3624  157.3564 C.ar    1  UNL1       -0.0029
      7 C         139.6788  143.9422  155.5701 C.ar    1  UNL1        0.0829
      8 N         139.3806  145.4002  155.7576 N.ar    1  UNL1       -0.2264
      9 C         139.9072  146.4057  154.7768 C.ar    1  UNL1        0.1666
     10 N         139.6089  147.8637  154.9642 N.ar    1  UNL1       -0.1945
     11 C         140.1355  148.8690  153.9834 C.ar    1  UNL1        0.2216
     12 N         140.9602  148.4163  152.8152 N.ar    1  UNL1       -0.2120
     13 C         141.2585  146.9583  152.6277 C.ar    1  UNL1        0.1048
     14 C         140.7319  145.9530  153.6085 C.ar    1  UNL1        0.0551
     15 C         141.0301  144.4949  153.4211 C.ar    1  UNL1        0.0061
     16 C         140.5036  143.4895  154.4019 C.ar    1  UNL1        0.0179
     17 N         139.8373  150.3271  154.1709 N.pl3   1  UNL1       -0.2753
     18 C         138.8661  150.7643  155.2272 C.3     1  UNL1        0.1109
     19 C         138.5679  152.2223  155.4146 C.3     1  UNL1        0.0940
     20 N         139.2408  153.2433  154.5458 N.3     1  UNL1       -0.2677
     21 C         140.2120  152.8061  153.4895 C.3     1  UNL1        0.0940
     22 C         140.5102  151.3480  153.3020 C.3     1  UNL1        0.1109
     23 C         138.9426  154.7013  154.7332 C.3     1  UNL1        0.1043
     24 C         137.5220  155.1829  154.7290 C.3     1  UNL1        0.1544
     25 O         136.5926  154.7674  153.6274 O.3     1  UNL1       -0.3805
     26 H         136.8954  155.1478  152.7881 H       1  UNL1        0.2105
     27 C         140.8018  142.0314  154.2144 C.ar    1  UNL1        0.0015
     28 C         142.0651  141.4464  154.7730 C.ar    1  UNL1        0.0000
     29 C         142.3633  139.9884  154.5856 C.ar    1  UNL1        0.0000
     30 C         141.3983  139.1154  153.8396 C.ar    1  UNL1        0.0000
     31 C         140.1351  139.7004  153.2810 C.ar    1  UNL1        0.0000
     32 C         139.8368  141.1584  153.4684 C.ar    1  UNL1        0.0000
     33 C         137.5728  139.9206  159.4934 C.3     1  UNL1        0.0991
     34 C         138.7507  140.1764  163.8289 C.3     1  UNL1        0.0613
     35 C         138.1439  141.3656  163.1452 C.3     1  UNL1        0.0249
     36 C         137.7513  141.2803  161.6999 C.3     1  UNL1        0.0728
     37 N         137.9654  140.0058  160.9385 N.3     1  UNL1       -0.2689
     38 C         138.5722  138.8166  161.6223 C.3     1  UNL1        0.0728
     39 C         138.9648  138.9018  163.0674 C.3     1  UNL1        0.0249
     40 C         140.1837  140.9833  167.3447 C.ar    1  UNL1        0.1633
     41 N         139.3113  139.8022  167.6514 N.ar    1  UNL1       -0.1293
     42 N         138.6683  139.3561  166.3717 N.ar    1  UNL1       -0.1336
     43 C         139.1433  140.2616  165.2741 C.ar    1  UNL1        0.1396
     44 N         140.0798  141.2672  165.8754 N.ar    1  UNL1       -0.3246
     45 H         140.5447  141.9872  165.3909 H       1  UNL1        0.1686
     46 O         143.5053  144.0362  171.3004 O.co2   1  UNL1       -0.6187
     47 N         142.6749  143.2729  170.3115 N.ar    1  UNL1       -0.1519
     48 C         141.2465  143.6637  170.0717 C.ar    1  UNL1        0.3019
     49 C         140.4162  142.9004  169.0827 C.ar    1  UNL1        0.0802
     50 C         141.0141  141.7465  168.3336 C.ar    1  UNL1        0.0480
     51 C         142.4423  141.3559  168.5734 C.ar    1  UNL1        0.0802
     52 C         143.2727  142.1191  169.5623 C.ar    1  UNL1        0.3019
@<TRIPOS>UNITY_ATOM_ATTR
46 1
charge -1
47 1
charge 1
@<TRIPOS>BOND
     1    46    47    1
     2    47    48   ar
     3    48    49   ar
     4    49    50   ar
     5    50    40    1
     6    40    41   ar
     7    41    42   ar
     8    42    43   ar
     9    43    34    1
    10    34    35    1
    11    35    36    1
    12    36    37    1
    13    37    33    1
    14    33     1    1
    15     1     2   ar
    16     2     3   ar
    17     3     4   ar
    18     4     7    1
    19     7     8   ar
    20     8     9   ar
    21     9    10   ar
    22    10    11   ar
    23    11    17    1
    24    17    18    1
    25    18    19    1
    26    19    20    1
    27    20    23    1
    28    23    24    1
    29    24    25    1
    30    20    21    1
    31    21    22    1
    32    11    12   ar
    33    12    13   ar
    34    13    14   ar
    35    14    15   ar
    36    15    16   ar
    37    16    27    1
    38    27    28   ar
    39    28    29   ar
    40    29    30   ar
    41    30    31   ar
    42    31    32   ar
    43     4     5   ar
    44     5     6   ar
    45    37    38    1
    46    38    39    1
    47    43    44   ar
    48    50    51   ar
    49    51    52   ar
    50    52    47   ar
    51    44    40   ar
    52    39    34    1
    53     6     1   ar
    54    16     7   ar
    55    32    27   ar
    56    14     9   ar
    57    22    17    1
    58    25    26    1
    59    44    45    1
@<TRIPOS>MOLECULE
*****
 52 59 0 0 0
SMALL
GASTEIGER

@<TRIPOS>ATOM
      1 C         142.5256  141.3004  160.9913 C.ar    1  UNL1       -0.0061
      2 C         141.8053  140.0743  161.4686 C.ar    1  UNL1       -0.0029
      3 C         141.5193  139.8938  162.9300 C.ar    1  UNL1        0.0012
      4 C         141.9536  140.9393  163.9140 C.ar    1  UNL1        0.0177
      5 C         142.6740  142.1653  163.4367 C.ar    1  UNL1        0.0012
      6 C         142.9600  142.3459  161.9753 C.ar    1  UNL1       -0.0029
      7 C         141.6676  140.7587  165.3754 C.ar    1  UNL1        0.0829
      8 N         142.5532  139.8818  166.2102 N.ar    1  UNL1       -0.2264
      9 C         142.2671  139.7012  167.6716 C.ar    1  UNL1        0.1666
     10 N         143.1527  138.8244  168.5064 N.ar    1  UNL1       -0.1945
     11 C         142.8666  138.6438  169.9677 C.ar    1  UNL1        0.2216
     12 N         141.6950  139.3401  170.5943 N.ar    1  UNL1       -0.2120
     13 C         140.8095  140.2169  169.7595 C.ar    1  UNL1        0.1048
     14 C         141.0955  140.3975  168.2981 C.ar    1  UNL1        0.0551
     15 C         140.2100  141.2744  167.4633 C.ar    1  UNL1        0.0061
     16 C         140.4960  141.4549  166.0019 C.ar    1  UNL1        0.0179
     17 N         143.7522  137.7670  170.8026 N.pl3   1  UNL1       -0.2753
     18 C         143.6850  136.2757  170.6552 C.3     1  UNL1        0.1109
     19 C         144.5705  135.3989  171.4900 C.3     1  UNL1        0.0940
     20 N         145.5233  136.0132  172.4723 N.3     1  UNL1       -0.2677
     21 C         145.5905  137.5044  172.6197 C.3     1  UNL1        0.0940
     22 C         144.7049  138.3813  171.7848 C.3     1  UNL1        0.1109
     23 C         146.4088  135.1364  173.3071 C.3     1  UNL1        0.1043
     24 C         146.1605  133.6582  173.3655 C.3     1  UNL1        0.1544
     25 O         146.6269  132.8656  174.5504 O.3     1  UNL1       -0.3805
     26 H         147.5964  132.8686  174.5801 H       1  UNL1        0.2105
     27 C         139.6104  142.3318  165.1671 C.ar    1  UNL1        0.0015
     28 C         139.8297  143.8155  165.1454 C.ar    1  UNL1        0.0000
     29 C         138.9442  144.6924  164.3105 C.ar    1  UNL1        0.0000
     30 C         137.8394  144.0855  163.4975 C.ar    1  UNL1        0.0000
     31 C         137.6202  142.6018  163.5192 C.ar    1  UNL1        0.0000
     32 C         138.5057  141.7249  164.3540 C.ar    1  UNL1        0.0000
     33 C         142.8117  141.4810  159.5299 C.3     1  UNL1        0.0991
     34 C         140.5868  144.6008  157.1705 C.3     1  UNL1        0.0613
     35 C         142.0868  144.5937  157.1772 C.3     1  UNL1        0.0249
     36 C         142.8284  143.5538  157.9637 C.3     1  UNL1        0.0728
     37 N         142.0701  142.5209  158.7434 N.3     1  UNL1       -0.2689
     38 C         140.5701  142.5279  158.7367 C.3     1  UNL1        0.0728
     39 C         139.8285  143.5678  157.9503 C.3     1  UNL1        0.0249
     40 C         139.2189  147.7520  155.3640 C.ar    1  UNL1        0.1633
     41 N         138.1890  146.7299  154.9835 N.ar    1  UNL1       -0.1293
     42 N         138.5761  145.4250  155.6140 N.ar    1  UNL1       -0.1336
     43 C         139.8452  145.6407  156.3840 C.ar    1  UNL1        0.1396
     44 N         140.2425  147.0788  156.2295 N.ar    1  UNL1       -0.3246
     45 H         141.0357  147.5059  156.6265 H       1  UNL1        0.1686
     46 O         139.2403  153.5205  153.7133 O.co2   1  UNL1       -0.6187
     47 N         139.2350  152.0784  154.1260 N.ar    1  UNL1       -0.1519
     48 C         138.5153  151.6578  155.3731 C.ar    1  UNL1        0.3019
     49 C         138.5100  150.2157  155.7857 C.ar    1  UNL1        0.0802
     50 C         139.2243  149.1942  154.9513 C.ar    1  UNL1        0.0480
     51 C         139.9439  149.6147  153.7042 C.ar    1  UNL1        0.0802
     52 C         139.9492  151.0569  153.2916 C.ar    1  UNL1        0.3019
@<TRIPOS>UNITY_ATOM_ATTR
46 1
charge -1
47 1
charge 1
@<TRIPOS>BOND
     1    46    47    1
     2    47    48   ar
     3    48    49   ar
     4    49    50   ar
     5    50    40    1
     6    40    41   ar
     7    41    42   ar
     8    42    43   ar
     9    43    34    1
    10    34    35    1
    11    35    36    1
    12    36    37    1
    13    37    33    1
    14    33     1    1
    15     1     2   ar
    16     2     3   ar
    17     3     4   ar
    18     4     7    1
    19     7     8   ar
    20     8     9   ar
    21     9    10   ar
    22    10    11   ar
    23    11    17    1
    24    17    18    1
    25    18    19    1
    26    19    20    1
    27    20    23    1
    28    23    24    1
    29    24    25    1
    30    20    21    1
    31    21    22    1
    32    11    12   ar
    33    12    13   ar
    34    13    14   ar
    35    14    15   ar
    36    15    16   ar
    37    16    27    1
    38    27    28   ar
    39    28    29   ar
    40    29    30   ar
    41    30    31   ar
    42    31    32   ar
    43     4     5   ar
    44     5     6   ar
    45    37    38    1
    46    38    39    1
    47    43    44   ar
    48    50    51   ar
    49    51    52   ar
    50    52    47   ar
    51    44    40   ar
    52    39    34    1
    53     6     1   ar
    54    16     7   ar
    55    32    27   ar
    56    14     9   ar
    57    22    17    1
    58    25    26    1
    59    44    45    1
@<TRIPOS>MOLECULE
*****
 52 59 0 0 0
SMALL
GASTEIGER

@<TRIPOS>ATOM
      1 C         142.2777  140.2665  157.7256 C.ar    1  UNL1       -0.0061
      2 C         143.3900  139.6997  156.8941 C.ar    1  UNL1       -0.0029
      3 C         143.2844  138.3057  156.3503 C.ar    1  UNL1        0.0012
      4 C         142.0665  137.4787  156.6379 C.ar    1  UNL1        0.0177
      5 C         140.9542  138.0456  157.4693 C.ar    1  UNL1        0.0012
      6 C         141.0598  139.4395  158.0132 C.ar    1  UNL1       -0.0029
      7 C         141.9610  136.0847  156.0940 C.ar    1  UNL1        0.0829
      8 N         142.5277  134.9323  156.8691 N.ar    1  UNL1       -0.2264
      9 C         142.4221  133.5384  156.3252 C.ar    1  UNL1        0.1666
     10 N         142.9889  132.3860  157.1002 N.ar    1  UNL1       -0.1945
     11 C         142.8833  130.9921  156.5563 C.ar    1  UNL1        0.2216
     12 N         142.2110  130.7506  155.2374 N.ar    1  UNL1       -0.2120
     13 C         141.6443  131.9030  154.4623 C.ar    1  UNL1        0.1048
     14 C         141.7498  133.2968  155.0062 C.ar    1  UNL1        0.0551
     15 C         141.1831  134.4493  154.2311 C.ar    1  UNL1        0.0061
     16 C         141.2886  135.8432  154.7750 C.ar    1  UNL1        0.0179
     17 N         143.4501  129.8396  157.3314 N.pl3   1  UNL1       -0.2753
     18 C         142.8352  128.4771  157.2066 C.3     1  UNL1        0.1109
     19 C         143.4019  127.3247  157.9816 C.3     1  UNL1        0.0940
     20 N         144.5835  127.5347  158.8815 N.3     1  UNL1       -0.2677
     21 C         145.1984  128.8972  159.0063 C.3     1  UNL1        0.0940
     22 C         144.6317  130.0496  158.2312 C.3     1  UNL1        0.1109
     23 C         145.1502  126.3823  159.6565 C.3     1  UNL1        0.1043
     24 C         146.0588  126.6370  160.8225 C.3     1  UNL1        0.1544
     25 O         145.5679  127.4314  161.9963 O.3     1  UNL1       -0.3805
     26 H         145.3984  128.3456  161.7198 H       1  UNL1        0.2105
     27 C         140.7219  136.9957  154.0000 C.ar    1  UNL1        0.0015
     28 C         141.5975  137.7706  153.0604 C.ar    1  UNL1        0.0000
     29 C         141.0308  138.9230  152.2853 C.ar    1  UNL1        0.0000
     30 C         139.5885  139.3005  152.4499 C.ar    1  UNL1        0.0000
     31 C         138.7129  138.5256  153.3894 C.ar    1  UNL1        0.0000
     32 C         139.2796  137.3732  154.1645 C.ar    1  UNL1        0.0000
     33 C         142.3832  141.6605  158.2695 C.3     1  UNL1        0.0991
     34 C         141.0517  142.5410  162.4768 C.3     1  UNL1        0.0613
     35 C         141.9848  141.3974  162.2092 C.3     1  UNL1        0.0249
     36 C         142.4287  141.1040  160.8067 C.3     1  UNL1        0.0728
     37 N         141.9394  141.9540  159.6719 N.3     1  UNL1       -0.2689
     38 C         141.0063  143.0976  159.9394 C.3     1  UNL1        0.0728
     39 C         140.5624  143.3910  161.3419 C.3     1  UNL1        0.0249
     40 C         140.3011  142.6852  166.2822 C.ar    1  UNL1        0.1633
     41 N         139.5487  143.8870  165.7926 N.ar    1  UNL1       -0.1293
     42 N         139.7383  143.9792  164.3075 N.ar    1  UNL1       -0.1336
     43 C         140.6079  142.8344  163.8792 C.ar    1  UNL1        0.1396
     44 N         140.9557  142.0347  165.0996 N.ar    1  UNL1       -0.3246
     45 H         141.5153  141.2250  165.1208 H       1  UNL1        0.1686
     46 O         140.6337  140.8093  171.9717 O.co2   1  UNL1       -0.6187
     47 N         140.5505  141.2783  170.5493 N.ar    1  UNL1       -0.1519
     48 C         140.5910  140.2829  169.4278 C.ar    1  UNL1        0.3019
     49 C         140.5079  140.7519  168.0055 C.ar    1  UNL1        0.0802
     50 C         140.3842  142.2162  167.7045 C.ar    1  UNL1        0.0480
     51 C         140.3437  143.2115  168.8260 C.ar    1  UNL1        0.0802
     52 C         140.4269  142.7425  170.2484 C.ar    1  UNL1        0.3019
@<TRIPOS>UNITY_ATOM_ATTR
46 1
charge -1
47 1
charge 1
@<TRIPOS>BOND
     1    46    47    1
     2    47    48   ar
     3    48    49   ar
     4    49    50   ar
     5    50    40    1
     6    40    41   ar
     7    41    42   ar
     8    42    43   ar
     9    43    34    1
    10    34    35    1
    11    35    36    1
    12    36    37    1
    13    37    33    1
    14    33     1    1
    15     1     2   ar
    16     2     3   ar
    17     3     4   ar
    18     4     7    1
    19     7     8   ar
    20     8     9   ar
    21     9    10   ar
    22    10    11   ar
    23    11    17    1
    24    17    18    1
    25    18    19    1
    26    19    20    1
    27    20    23    1
    28    23    24    1
    29    24    25    1
    30    20    21    1
    31    21    22    1
    32    11    12   ar
    33    12    13   ar
    34    13    14   ar
    35    14    15   ar
    36    15    16   ar
    37    16    27    1
    38    27    28   ar
    39    28    29   ar
    40    29    30   ar
    41    30    31   ar
    42    31    32   ar
    43     4     5   ar
    44     5     6   ar
    45    37    38    1
    46    38    39    1
    47    43    44   ar
    48    50    51   ar
    49    51    52   ar
    50    52    47   ar
    51    44    40   ar
    52    39    34    1
    53     6     1   ar
    54    16     7   ar
    55    32    27   ar
    56    14     9   ar
    57    22    17    1
    58    25    26    1
    59    44    45    1
@<TRIPOS>MOLECULE
*****
 52 59 0 0 0
SMALL
GASTEIGER

@<TRIPOS>ATOM
      1 C         140.0005  143.0882  155.9726 C.ar    1  UNL1       -0.0061
      2 C         139.5183  141.7216  156.3599 C.ar    1  UNL1       -0.0029
      3 C         140.1570  140.9986  157.5085 C.ar    1  UNL1        0.0012
      4 C         141.2777  141.6422  158.2699 C.ar    1  UNL1        0.0177
      5 C         141.7599  143.0087  157.8826 C.ar    1  UNL1        0.0012
      6 C         141.1213  143.7317  156.7340 C.ar    1  UNL1       -0.0029
      7 C         141.9164  140.9191  159.4185 C.ar    1  UNL1        0.0829
      8 N         141.3747  141.0902  160.8068 N.ar    1  UNL1       -0.2264
      9 C         142.0134  140.3671  161.9555 C.ar    1  UNL1        0.1666
     10 N         141.4717  140.5382  163.3437 N.ar    1  UNL1       -0.1945
     11 C         142.1104  139.8151  164.4923 C.ar    1  UNL1        0.2216
     12 N         143.2906  138.9210  164.2526 N.ar    1  UNL1       -0.2120
     13 C         143.8322  138.7499  162.8644 C.ar    1  UNL1        0.1048
     14 C         143.1936  139.4729  161.7158 C.ar    1  UNL1        0.0551
     15 C         143.7352  139.3018  160.3275 C.ar    1  UNL1        0.0061
     16 C         143.0966  140.0249  159.1789 C.ar    1  UNL1        0.0179
     17 N         141.5687  139.9862  165.8807 N.pl3   1  UNL1       -0.2753
     18 C         140.1151  139.7372  166.1546 C.3     1  UNL1        0.1109
     19 C         139.5735  139.9082  167.5429 C.3     1  UNL1        0.0940
     20 N         140.4855  140.3284  168.6573 N.3     1  UNL1       -0.2677
     21 C         141.9391  140.5775  168.3834 C.3     1  UNL1        0.0940
     22 C         142.4807  140.4064  166.9950 C.3     1  UNL1        0.1109
     23 C         139.9438  140.4995  170.0455 C.3     1  UNL1        0.1043
     24 C         140.8641  140.8760  171.1686 C.3     1  UNL1        0.1544
     25 O         140.5529  142.0665  172.0263 O.3     1  UNL1       -0.3805
     26 H         140.6102  142.8740  171.4918 H       1  UNL1        0.2105
     27 C         143.6382  139.8538  157.7905 C.ar    1  UNL1        0.0015
     28 C         144.7402  140.7456  157.3002 C.ar    1  UNL1        0.0000
     29 C         145.2818  140.5745  155.9119 C.ar    1  UNL1        0.0000
     30 C         144.7215  139.5117  155.0140 C.ar    1  UNL1        0.0000
     31 C         143.6195  138.6200  155.5043 C.ar    1  UNL1        0.0000
     32 C         143.0779  138.7910  156.8926 C.ar    1  UNL1        0.0000
     33 C         139.3619  143.8113  154.8240 C.3     1  UNL1        0.0991
     34 C         139.9184  148.2539  154.3729 C.3     1  UNL1        0.0613
     35 C         138.8902  147.7197  155.3255 C.3     1  UNL1        0.0249
     36 C         138.7047  146.2388  155.4758 C.3     1  UNL1        0.0728
     37 N         139.5474  145.2921  154.6736 N.3     1  UNL1       -0.2689
     38 C         140.5756  145.8263  153.7210 C.3     1  UNL1        0.0728
     39 C         140.7611  147.3071  153.5706 C.3     1  UNL1        0.0249
     40 C         141.1333  151.9190  153.9784 C.ar    1  UNL1        0.1633
     41 N         139.6454  152.1080  154.0038 N.ar    1  UNL1       -0.1293
     42 N         139.0093  150.7580  154.1546 N.ar    1  UNL1       -0.1336
     43 C         140.1039  149.7347  154.2225 C.ar    1  UNL1        0.1396
     44 N         141.4166  150.4522  154.1136 N.ar    1  UNL1       -0.3246
     45 H         142.3077  150.0339  154.1283 H       1  UNL1        0.1686
     46 O         145.2319  156.2669  153.4321 O.co2   1  UNL1       -0.6187
     47 N         144.2072  155.1799  153.5687 N.ar    1  UNL1       -0.1519
     48 C         142.8103  155.3988  153.0677 C.ar    1  UNL1        0.3019
     49 C         141.7858  154.3118  153.2043 C.ar    1  UNL1        0.0802
     50 C         142.1580  153.0060  153.8418 C.ar    1  UNL1        0.0480
     51 C         143.5548  152.7872  154.3428 C.ar    1  UNL1        0.0802
     52 C         144.5794  153.8742  154.2062 C.ar    1  UNL1        0.3019
@<TRIPOS>UNITY_ATOM_ATTR
46 1
charge -1
47 1
charge 1
@<TRIPOS>BOND
     1    46    47    1
     2    47    48   ar
     3    48    49   ar
     4    49    50   ar
     5    50    40    1
     6    40    41   ar
     7    41    42   ar
     8    42    43   ar
     9    43    34    1
    10    34    35    1
    11    35    36    1
    12    36    37    1
    13    37    33    1
    14    33     1    1
    15     1     2   ar
    16     2     3   ar
    17     3     4   ar
    18     4     7    1
    19     7     8   ar
    20     8     9   ar
    21     9    10   ar
    22    10    11   ar
    23    11    17    1
    24    17    18    1
    25    18    19    1
    26    19    20    1
    27    20    23    1
    28    23    24    1
    29    24    25    1
    30    20    21    1
    31    21    22    1
    32    11    12   ar
    33    12    13   ar
    34    13    14   ar
    35    14    15   ar
    36    15    16   ar
    37    16    27    1
    38    27    28   ar
    39    28    29   ar
    40    29    30   ar
    41    30    31   ar
    42    31    32   ar
    43     4     5   ar
    44     5     6   ar
    45    37    38    1
    46    38    39    1
    47    43    44   ar
    48    50    51   ar
    49    51    52   ar
    50    52    47   ar
    51    44    40   ar
    52    39    34    1
    53     6     1   ar
    54    16     7   ar
    55    32    27   ar
    56    14     9   ar
    57    22    17    1
    58    25    26    1
    59    44    45    1
@<TRIPOS>MOLECULE
*****
 52 59 0 0 0
SMALL
GASTEIGER

@<TRIPOS>ATOM
      1 C         143.2160  139.8716  158.0437 C.ar    1  UNL1       -0.0061
      2 C         143.9967  139.7210  156.7718 C.ar    1  UNL1       -0.0029
      3 C         143.6458  138.6331  155.8007 C.ar    1  UNL1        0.0012
      4 C         142.5141  137.6956  156.1014 C.ar    1  UNL1        0.0177
      5 C         141.7333  137.8462  157.3733 C.ar    1  UNL1        0.0012
      6 C         142.0842  138.9341  158.3444 C.ar    1  UNL1       -0.0029
      7 C         142.1632  136.6076  155.1302 C.ar    1  UNL1        0.0829
      8 N         142.8661  135.2844  155.2002 N.ar    1  UNL1       -0.2264
      9 C         142.5152  134.1964  154.2290 C.ar    1  UNL1        0.1666
     10 N         143.2180  132.8732  154.2990 N.ar    1  UNL1       -0.1945
     11 C         142.8671  131.7853  153.3278 C.ar    1  UNL1        0.2216
     12 N         141.8133  132.0206  152.2866 N.ar    1  UNL1       -0.2120
     13 C         141.1104  133.3438  152.2166 C.ar    1  UNL1        0.1048
     14 C         141.4614  134.4317  153.1878 C.ar    1  UNL1        0.0551
     15 C         140.7585  135.7551  153.1178 C.ar    1  UNL1        0.0061
     16 C         141.1094  136.8430  154.0890 C.ar    1  UNL1        0.0179
     17 N         143.5700  130.4619  153.3978 N.pl3   1  UNL1       -0.2753
     18 C         144.2851  130.0580  154.6530 C.3     1  UNL1        0.1109
     19 C         144.9880  128.7348  154.7230 C.3     1  UNL1        0.0940
     20 N         144.9757  127.8153  153.5378 N.3     1  UNL1       -0.2677
     21 C         144.2606  128.2192  152.2827 C.3     1  UNL1        0.0940
     22 C         143.5577  129.5426  152.2127 C.3     1  UNL1        0.1109
     23 C         145.6786  126.4921  153.6079 C.3     1  UNL1        0.1043
     24 C         147.1185  126.3852  153.2013 C.3     1  UNL1        0.1544
     25 O         148.1166  127.3843  153.7065 O.3     1  UNL1       -0.3805
     26 H         147.9100  128.2598  153.3434 H       1  UNL1        0.2105
     27 C         140.4065  138.1663  154.0190 C.ar    1  UNL1        0.0015
     28 C         139.0971  138.3583  154.7251 C.ar    1  UNL1        0.0000
     29 C         138.3942  139.6815  154.6551 C.ar    1  UNL1        0.0000
     30 C         139.0007  140.8128  153.8791 C.ar    1  UNL1        0.0000
     31 C         140.3101  140.6208  153.1730 C.ar    1  UNL1        0.0000
     32 C         141.0130  139.2976  153.2429 C.ar    1  UNL1        0.0000
     33 C         143.5669  140.9596  159.0149 C.3     1  UNL1        0.0991
     34 C         143.2835  140.2016  163.4416 C.3     1  UNL1        0.0613
     35 C         142.6865  141.4459  162.8540 C.3     1  UNL1        0.0249
     36 C         142.7810  141.6986  161.3784 C.3     1  UNL1        0.0728
     37 N         143.4724  140.7069  160.4904 N.3     1  UNL1       -0.2689
     38 C         144.0694  139.4626  161.0780 C.3     1  UNL1        0.0728
     39 C         143.9750  139.2099  162.5535 C.3     1  UNL1        0.0249
     40 C         142.6290  140.1800  167.2673 C.ar    1  UNL1        0.1633
     41 N         143.4585  138.9403  167.1081 N.ar    1  UNL1       -0.1293
     42 N         143.8046  138.7976  165.6556 N.ar    1  UNL1       -0.1336
     43 C         143.1891  139.9490  164.9171 C.ar    1  UNL1        0.1396
     44 N         142.4625  140.8033  165.9131 N.ar    1  UNL1       -0.3246
     45 H         141.9640  141.6284  165.7132 H       1  UNL1        0.1686
     46 O         140.3732  142.2770  172.4165 O.co2   1  UNL1       -0.6187
     47 N         140.9372  141.7527  171.1292 N.ar    1  UNL1       -0.1519
     48 C         140.5877  140.3696  170.6654 C.ar    1  UNL1        0.3019
     49 C         141.1517  139.8455  169.3781 C.ar    1  UNL1        0.0802
     50 C         142.0651  140.7042  168.5546 C.ar    1  UNL1        0.0480
     51 C         142.4145  142.0873  169.0184 C.ar    1  UNL1        0.0802
     52 C         141.8506  142.6115  170.3057 C.ar    1  UNL1        0.3019
@<TRIPOS>UNITY_ATOM_ATTR
46 1
charge -1
47 1
charge 1
@<TRIPOS>BOND
     1    46    47    1
     2    47    48   ar
     3    48    49   ar
     4    49    50   ar
     5    50    40    1
     6    40    41   ar
     7    41    42   ar
     8    42    43   ar
     9    43    34    1
    10    34    35    1
    11    35    36    1
    12    36    37    1
    13    37    33    1
    14    33     1    1
    15     1     2   ar
    16     2     3   ar
    17     3     4   ar
    18     4     7    1
    19     7     8   ar
    20     8     9   ar
    21     9    10   ar
    22    10    11   ar
    23    11    17    1
    24    17    18    1
    25    18    19    1
    26    19    20    1
    27    20    23    1
    28    23    24    1
    29    24    25    1
    30    20    21    1
    31    21    22    1
    32    11    12   ar
    33    12    13   ar
    34    13    14   ar
    35    14    15   ar
    36    15    16   ar
    37    16    27    1
    38    27    28   ar
    39    28    29   ar
    40    29    30   ar
    41    30    31   ar
    42    31    32   ar
    43     4     5   ar
    44     5     6   ar
    45    37    38    1
    46    38    39    1
    47    43    44   ar
    48    50    51   ar
    49    51    52   ar
    50    52    47   ar
    51    44    40   ar
    52    39    34    1
    53     6     1   ar
    54    16     7   ar
    55    32    27   ar
    56    14     9   ar
    57    22    17    1
    58    25    26    1
    59    44    45    1
