@<TRIPOS>MOLECULE
*****
 28 31 0 0 0
SMALL
GASTEIGER

@<TRIPOS>ATOM
      1 C         139.9222  140.0964  166.5221 C.3     1  UNL1        0.0517
      2 C         138.7271  140.1046  165.6156 C.3     1  UNL1        0.0241
      3 C         138.7311  139.2812  164.3618 C.3     1  UNL1        0.0726
      4 N         139.9301  138.4496  164.0144 N.3     1  UNL1       -0.2706
      5 C         141.1253  138.4414  164.9209 C.3     1  UNL1        0.1020
      6 C         141.1213  139.2647  166.1747 C.3     1  UNL1        0.1304
      7 O         142.3164  139.2565  167.0811 O.3     1  UNL1       -0.3827
      8 H         142.1505  139.8373  167.8401 H       1  UNL1        0.2104
      9 C         140.9652  142.9087  166.4729 C.3     1  UNL1        0.0307
     10 C         140.4397  142.3259  167.7513 C.ar    1  UNL1       -0.0257
     11 C         140.4358  143.1493  169.0051 C.ar    1  UNL1       -0.0046
     12 C         139.9103  142.5665  170.2835 C.ar    1  UNL1       -0.0003
     13 C         139.3888  141.1602  170.3080 C.ar    1  UNL1       -0.0003
     14 C         139.3928  140.3369  169.0542 C.ar    1  UNL1       -0.0045
     15 C         139.9182  140.9197  167.7759 C.ar    1  UNL1       -0.0240
     16 C         139.9341  137.6263  162.7606 C.3     1  UNL1        0.0725
     17 C         140.8340  138.0006  161.6204 C.3     1  UNL1        0.0232
     18 C         140.2450  138.4057  160.3018 C.3     1  UNL1        0.0291
     19 C         141.1449  138.7800  159.1615 C.ar    1  UNL1       -0.0062
     20 C         140.5558  139.1851  157.8429 C.ar    1  UNL1       -0.0014
     21 C         141.4557  139.5594  156.7027 C.ar    1  UNL1        0.0203
     22 C         142.9448  139.5285  156.8812 C.ar    1  UNL1        0.0985
     23 N         143.5339  139.1234  158.1998 N.ar    1  UNL1       -0.2461
     24 C         142.6339  138.7491  159.3400 C.ar    1  UNL1        0.0817
     25 C         143.2230  138.3439  160.6587 C.3     1  UNL1        0.1499
     26 O         144.7120  138.3131  160.8371 O.3     1  UNL1       -0.3785
     27 C         142.3231  137.9697  161.7988 C.3     1  UNL1        0.0371
     28 H         145.1424  138.5808  160.0101 H       1  UNL1        0.2108
@<TRIPOS>BOND
     1     9    10    1
     2    10    11   ar
     3    11    12   ar
     4    12    13   ar
     5    13    14   ar
     6    14    15   ar
     7     1    15    1
     8     1     2    1
     9     2     3    1
    10     3     4    1
    11     4    16    1
    12    17    16    1
    13    17    18    1
    14    18    19    1
    15    19    20   ar
    16    20    21   ar
    17    21    22   ar
    18    22    23   ar
    19    23    24   ar
    20    24    25    1
    21    25    26    1
    22    25    27    1
    23     4     5    1
    24     5     6    1
    25     6     7    1
    26    15    10   ar
    27     6     1    1
    28    27    17    1
    29    24    19   ar
    30    26    28    1
    31     7     8    1
@<TRIPOS>MOLECULE
*****
 28 31 0 0 0
SMALL
GASTEIGER

@<TRIPOS>ATOM
      1 C         140.2896  139.9045  167.2940 C.3     1  UNL1        0.0517
      2 C         138.9206  139.4613  166.8705 C.3     1  UNL1        0.0241
      3 C         138.7521  138.6175  165.6417 C.3     1  UNL1        0.0726
      4 N         139.9526  138.2170  164.8366 N.3     1  UNL1       -0.2706
      5 C         141.3217  138.6602  165.2601 C.3     1  UNL1        0.1020
      6 C         141.4902  139.5039  166.4888 C.3     1  UNL1        0.1304
      7 O         142.8592  139.9471  166.9123 O.3     1  UNL1       -0.3827
      8 H         142.7910  140.4806  167.7195 H       1  UNL1        0.2104
      9 C         140.3512  142.8949  167.0632 C.3     1  UNL1        0.0307
     10 C         140.4889  142.2434  168.4073 C.ar    1  UNL1       -0.0257
     11 C         140.6575  143.0872  169.6360 C.ar    1  UNL1       -0.0046
     12 C         140.7952  142.4357  170.9801 C.ar    1  UNL1       -0.0003
     13 C         140.7644  140.9404  171.0955 C.ar    1  UNL1       -0.0003
     14 C         140.5959  140.0967  169.8668 C.ar    1  UNL1       -0.0045
     15 C         140.4582  140.7482  168.5227 C.ar    1  UNL1       -0.0240
     16 C         139.7841  137.3733  163.6079 C.3     1  UNL1        0.0725
     17 C         139.4519  138.0182  162.2949 C.3     1  UNL1        0.0232
     18 C         140.5006  138.1320  161.2286 C.3     1  UNL1        0.0291
     19 C         140.1684  138.7769  159.9156 C.ar    1  UNL1       -0.0062
     20 C         141.2171  138.8907  158.8492 C.ar    1  UNL1       -0.0014
     21 C         140.8848  139.5356  157.5364 C.ar    1  UNL1        0.0203
     22 C         139.5038  140.0668  157.2899 C.ar    1  UNL1        0.0985
     23 N         138.4551  139.9530  158.3563 N.ar    1  UNL1       -0.2461
     24 C         138.7874  139.3081  159.6691 C.ar    1  UNL1        0.0817
     25 C         137.7386  139.1943  160.7356 C.3     1  UNL1        0.1499
     26 O         136.3577  139.7255  160.4891 O.3     1  UNL1       -0.3785
     27 C         138.0709  138.5494  162.0485 C.3     1  UNL1        0.0371
     28 H         136.3122  140.1071  159.5985 H       1  UNL1        0.2108
@<TRIPOS>BOND
     1     9    10    1
     2    10    11   ar
     3    11    12   ar
     4    12    13   ar
     5    13    14   ar
     6    14    15   ar
     7     1    15    1
     8     1     2    1
     9     2     3    1
    10     3     4    1
    11     4    16    1
    12    17    16    1
    13    17    18    1
    14    18    19    1
    15    19    20   ar
    16    20    21   ar
    17    21    22   ar
    18    22    23   ar
    19    23    24   ar
    20    24    25    1
    21    25    26    1
    22    25    27    1
    23     4     5    1
    24     5     6    1
    25     6     7    1
    26    15    10   ar
    27     6     1    1
    28    27    17    1
    29    24    19   ar
    30    26    28    1
    31     7     8    1
@<TRIPOS>MOLECULE
*****
 28 31 0 0 0
SMALL
GASTEIGER

@<TRIPOS>ATOM
      1 C         140.1422  141.6148  166.7222 C.3     1  UNL1        0.0517
      2 C         140.1955  142.3736  165.4294 C.3     1  UNL1        0.0241
      3 C         139.4390  141.8735  164.2345 C.3     1  UNL1        0.0726
      4 N         138.6291  140.6148  164.3324 N.3     1  UNL1       -0.2706
      5 C         138.5758  139.8560  165.6253 C.3     1  UNL1        0.1020
      6 C         139.3323  140.3559  166.8201 C.3     1  UNL1        0.1304
      7 O         139.2789  139.5971  168.1129 O.3     1  UNL1       -0.3827
      8 H         139.8188  140.0527  168.7777 H       1  UNL1        0.2104
      9 C         142.8653  140.5181  167.3399 C.3     1  UNL1        0.0307
     10 C         142.2602  141.5664  168.2259 C.ar    1  UNL1       -0.0257
     11 C         143.0168  142.0663  169.4208 C.ar    1  UNL1       -0.0046
     12 C         142.4117  143.1146  170.3068 C.ar    1  UNL1       -0.0003
     13 C         141.0501  143.6629  169.9979 C.ar    1  UNL1       -0.0003
     14 C         140.2936  143.1630  168.8030 C.ar    1  UNL1       -0.0045
     15 C         140.8987  142.1147  167.9170 C.ar    1  UNL1       -0.0240
     16 C         137.8726  140.1149  163.1376 C.3     1  UNL1        0.0725
     17 C         138.6097  139.7420  161.8854 C.3     1  UNL1        0.0232
     18 C         139.9567  139.0882  161.9745 C.3     1  UNL1        0.0291
     19 C         140.6937  138.7153  160.7223 C.ar    1  UNL1       -0.0062
     20 C         142.0408  138.0615  160.8114 C.ar    1  UNL1       -0.0014
     21 C         142.7777  137.6887  159.5593 C.ar    1  UNL1        0.0203
     22 C         142.1676  137.9696  158.2181 C.ar    1  UNL1        0.0985
     23 N         140.8205  138.6234  158.1290 N.ar    1  UNL1       -0.2461
     24 C         140.0836  138.9963  159.3811 C.ar    1  UNL1        0.0817
     25 C         138.7365  139.6501  159.2921 C.3     1  UNL1        0.1499
     26 O         138.1264  139.9310  157.9509 O.3     1  UNL1       -0.3785
     27 C         137.9996  140.0229  160.5442 C.3     1  UNL1        0.0371
     28 H         138.7285  139.6302  157.2524 H       1  UNL1        0.2108
@<TRIPOS>BOND
     1     9    10    1
     2    10    11   ar
     3    11    12   ar
     4    12    13   ar
     5    13    14   ar
     6    14    15   ar
     7     1    15    1
     8     1     2    1
     9     2     3    1
    10     3     4    1
    11     4    16    1
    12    17    16    1
    13    17    18    1
    14    18    19    1
    15    19    20   ar
    16    20    21   ar
    17    21    22   ar
    18    22    23   ar
    19    23    24   ar
    20    24    25    1
    21    25    26    1
    22    25    27    1
    23     4     5    1
    24     5     6    1
    25     6     7    1
    26    15    10   ar
    27     6     1    1
    28    27    17    1
    29    24    19   ar
    30    26    28    1
    31     7     8    1
@<TRIPOS>MOLECULE
*****
 28 31 0 0 0
SMALL
GASTEIGER

@<TRIPOS>ATOM
      1 C         140.0244  141.3651  166.7799 C.3     1  UNL1        0.0517
      2 C         140.2813  142.8295  166.5813 C.3     1  UNL1        0.0241
      3 C         139.6174  143.5611  165.4525 C.3     1  UNL1        0.0726
      4 N         138.6967  142.8283  164.5223 N.3     1  UNL1       -0.2706
      5 C         138.4398  141.3639  164.7209 C.3     1  UNL1        0.1020
      6 C         139.1036  140.6323  165.8496 C.3     1  UNL1        0.1304
      7 O         138.8467  139.1678  166.0482 O.3     1  UNL1       -0.3827
      8 H         139.3491  138.8526  166.8158 H       1  UNL1        0.2104
      9 C         142.6463  139.9778  166.3320 C.3     1  UNL1        0.0307
     10 C         141.9991  139.9398  167.6847 C.ar    1  UNL1       -0.0257
     11 C         142.6630  139.2082  168.8134 C.ar    1  UNL1       -0.0046
     12 C         142.0158  139.1702  170.1661 C.ar    1  UNL1       -0.0003
     13 C         140.7048  139.8639  170.3900 C.ar    1  UNL1       -0.0003
     14 C         140.0410  140.5955  169.2613 C.ar    1  UNL1       -0.0045
     15 C         140.6882  140.6335  167.9086 C.ar    1  UNL1       -0.0240
     16 C         138.0330  143.5599  163.3936 C.3     1  UNL1        0.0725
     17 C         138.6771  143.5926  162.0393 C.3     1  UNL1        0.0232
     18 C         138.2388  142.6289  160.9768 C.3     1  UNL1        0.0291
     19 C         138.8829  142.6616  159.6225 C.ar    1  UNL1       -0.0062
     20 C         138.4446  141.6978  158.5600 C.ar    1  UNL1       -0.0014
     21 C         139.0888  141.7306  157.2058 C.ar    1  UNL1        0.0203
     22 C         140.1712  142.7272  156.9140 C.ar    1  UNL1        0.0985
     23 N         140.6096  143.6910  157.9765 N.ar    1  UNL1       -0.2461
     24 C         139.9654  143.6582  159.3308 C.ar    1  UNL1        0.0817
     25 C         140.4037  144.6220  160.3933 C.3     1  UNL1        0.1499
     26 O         141.4862  145.6186  160.1016 O.3     1  UNL1       -0.3785
     27 C         139.7596  144.5892  161.7476 C.3     1  UNL1        0.0371
     28 H         141.7920  145.5057  159.1880 H       1  UNL1        0.2108
@<TRIPOS>BOND
     1     9    10    1
     2    10    11   ar
     3    11    12   ar
     4    12    13   ar
     5    13    14   ar
     6    14    15   ar
     7     1    15    1
     8     1     2    1
     9     2     3    1
    10     3     4    1
    11     4    16    1
    12    17    16    1
    13    17    18    1
    14    18    19    1
    15    19    20   ar
    16    20    21   ar
    17    21    22   ar
    18    22    23   ar
    19    23    24   ar
    20    24    25    1
    21    25    26    1
    22    25    27    1
    23     4     5    1
    24     5     6    1
    25     6     7    1
    26    15    10   ar
    27     6     1    1
    28    27    17    1
    29    24    19   ar
    30    26    28    1
    31     7     8    1
@<TRIPOS>MOLECULE
*****
 28 31 0 0 0
SMALL
GASTEIGER

@<TRIPOS>ATOM
      1 C         139.7465  142.3887  161.7364 C.3     1  UNL1        0.0517
      2 C         140.8389  141.4328  162.1147 C.3     1  UNL1        0.0241
      3 C         140.6658  140.5258  163.2969 C.3     1  UNL1        0.0726
      4 N         139.4003  140.5747  164.1007 N.3     1  UNL1       -0.2706
      5 C         138.3079  141.5305  163.7225 C.3     1  UNL1        0.1020
      6 C         138.4810  142.4375  162.5404 C.3     1  UNL1        0.1304
      7 O         137.3886  143.3933  162.1621 O.3     1  UNL1       -0.3827
      8 H         137.6595  143.9014  161.3815 H       1  UNL1        0.2104
      9 C         140.9726  145.1030  162.0953 C.3     1  UNL1        0.0307
     10 C         140.5326  144.6528  160.7337 C.ar    1  UNL1       -0.0257
     11 C         140.7057  145.5599  159.5516 C.ar    1  UNL1       -0.0046
     12 C         140.2657  145.1097  158.1901 C.ar    1  UNL1       -0.0003
     13 C         139.6526  143.7524  158.0107 C.ar    1  UNL1       -0.0003
     14 C         139.4795  142.8455  159.1928 C.ar    1  UNL1       -0.0045
     15 C         139.9195  143.2956  160.5543 C.ar    1  UNL1       -0.0240
     16 C         139.2273  139.6677  165.2828 C.3     1  UNL1        0.0725
     17 C         139.6779  140.1134  166.6424 C.3     1  UNL1        0.0232
     18 C         140.9402  140.9100  166.7904 C.3     1  UNL1        0.0291
     19 C         141.3908  141.3557  168.1500 C.ar    1  UNL1       -0.0062
     20 C         142.6531  142.1523  168.2980 C.ar    1  UNL1       -0.0014
     21 C         143.1037  142.5979  169.6575 C.ar    1  UNL1        0.0203
     22 C         142.2920  142.2468  170.8691 C.ar    1  UNL1        0.0985
     23 N         141.0297  141.4501  170.7211 N.ar    1  UNL1       -0.2461
     24 C         140.5792  141.0046  169.3615 C.ar    1  UNL1        0.0817
     25 C         139.3168  140.2079  169.2135 C.3     1  UNL1        0.1499
     26 O         138.5051  139.8568  170.4251 O.3     1  UNL1       -0.3785
     27 C         138.8662  139.7623  167.8540 C.3     1  UNL1        0.0371
     28 H         138.9331  140.2184  171.2169 H       1  UNL1        0.2108
@<TRIPOS>BOND
     1     9    10    1
     2    10    11   ar
     3    11    12   ar
     4    12    13   ar
     5    13    14   ar
     6    14    15   ar
     7     1    15    1
     8     1     2    1
     9     2     3    1
    10     3     4    1
    11     4    16    1
    12    17    16    1
    13    17    18    1
    14    18    19    1
    15    19    20   ar
    16    20    21   ar
    17    21    22   ar
    18    22    23   ar
    19    23    24   ar
    20    24    25    1
    21    25    26    1
    22    25    27    1
    23     4     5    1
    24     5     6    1
    25     6     7    1
    26    15    10   ar
    27     6     1    1
    28    27    17    1
    29    24    19   ar
    30    26    28    1
    31     7     8    1
@<TRIPOS>MOLECULE
*****
 28 31 0 0 0
SMALL
GASTEIGER

@<TRIPOS>ATOM
      1 C         140.7144  142.8258  166.2070 C.3     1  UNL1        0.0517
      2 C         139.7416  143.7233  165.5013 C.3     1  UNL1        0.0241
      3 C         140.1203  144.3624  164.1981 C.3     1  UNL1        0.0726
      4 N         141.4716  144.1038  163.6006 N.3     1  UNL1       -0.2706
      5 C         142.4444  143.2063  164.3064 C.3     1  UNL1        0.1020
      6 C         142.0658  142.5672  165.6095 C.3     1  UNL1        0.1304
      7 O         143.0386  141.6697  166.3153 O.3     1  UNL1       -0.3827
      8 H         142.6394  141.3423  167.1364 H       1  UNL1        0.2104
      9 C         139.6468  140.0225  166.2487 C.3     1  UNL1        0.0307
     10 C         139.8020  140.7851  167.5310 C.ar    1  UNL1       -0.0257
     11 C         139.4234  140.1460  168.8342 C.ar    1  UNL1       -0.0046
     12 C         139.5787  140.9086  170.1166 C.ar    1  UNL1       -0.0003
     13 C         140.1126  142.3103  170.0957 C.ar    1  UNL1       -0.0003
     14 C         140.4911  142.9493  168.7925 C.ar    1  UNL1       -0.0045
     15 C         140.3359  142.1867  167.5102 C.ar    1  UNL1       -0.0240
     16 C         141.8502  144.7429  162.2975 C.3     1  UNL1        0.0725
     17 C         141.1194  144.3733  161.0407 C.3     1  UNL1        0.0232
     18 C         141.0778  145.3321  159.8878 C.3     1  UNL1        0.0291
     19 C         140.3470  144.9625  158.6310 C.ar    1  UNL1       -0.0062
     20 C         140.3053  145.9212  157.4782 C.ar    1  UNL1       -0.0014
     21 C         139.5746  145.5517  156.2215 C.ar    1  UNL1        0.0203
     22 C         138.8855  144.2234  156.1176 C.ar    1  UNL1        0.0985
     23 N         138.9272  143.2647  157.2704 N.ar    1  UNL1       -0.2461
     24 C         139.6579  143.6342  158.5271 C.ar    1  UNL1        0.0817
     25 C         139.6996  142.6755  159.6801 C.3     1  UNL1        0.1499
     26 O         139.0105  141.3472  159.5762 O.3     1  UNL1       -0.3785
     27 C         140.4303  143.0450  160.9368 C.3     1  UNL1        0.0371
     28 H         138.5900  141.2683  158.7056 H       1  UNL1        0.2108
@<TRIPOS>BOND
     1     9    10    1
     2    10    11   ar
     3    11    12   ar
     4    12    13   ar
     5    13    14   ar
     6    14    15   ar
     7     1    15    1
     8     1     2    1
     9     2     3    1
    10     3     4    1
    11     4    16    1
    12    17    16    1
    13    17    18    1
    14    18    19    1
    15    19    20   ar
    16    20    21   ar
    17    21    22   ar
    18    22    23   ar
    19    23    24   ar
    20    24    25    1
    21    25    26    1
    22    25    27    1
    23     4     5    1
    24     5     6    1
    25     6     7    1
    26    15    10   ar
    27     6     1    1
    28    27    17    1
    29    24    19   ar
    30    26    28    1
    31     7     8    1
@<TRIPOS>MOLECULE
*****
 28 31 0 0 0
SMALL
GASTEIGER

@<TRIPOS>ATOM
      1 C         140.0215  141.3707  166.6787 C.3     1  UNL1        0.0517
      2 C         140.2882  142.8290  166.4501 C.3     1  UNL1        0.0241
      3 C         139.6040  143.5493  165.3262 C.3     1  UNL1        0.0726
      4 N         138.6532  142.8113  164.4310 N.3     1  UNL1       -0.2706
      5 C         138.3866  141.3530  164.6596 C.3     1  UNL1        0.1020
      6 C         139.0707  140.6327  165.7834 C.3     1  UNL1        0.1304
      7 O         138.8040  139.1744  166.0121 O.3     1  UNL1       -0.3827
      8 H         139.3221  138.8663  166.7721 H       1  UNL1        0.2104
      9 C         142.6776  140.0538  166.2197 C.3     1  UNL1        0.0307
     10 C         142.0337  139.9919  167.5731 C.ar    1  UNL1       -0.0257
     11 C         142.7178  139.2715  168.6969 C.ar    1  UNL1       -0.0046
     12 C         142.0739  139.2096  170.0503 C.ar    1  UNL1       -0.0003
     13 C         140.7458  139.8681  170.2797 C.ar    1  UNL1       -0.0003
     14 C         140.0617  140.5884  169.1559 C.ar    1  UNL1       -0.0045
     15 C         140.7056  140.6503  167.8026 C.ar    1  UNL1       -0.0240
     16 C         137.9691  143.5317  163.3071 C.3     1  UNL1        0.0725
     17 C         138.5302  143.4589  161.9179 C.3     1  UNL1        0.0232
     18 C         139.5436  144.4674  161.4645 C.3     1  UNL1        0.0291
     19 C         140.1047  144.3946  160.0752 C.ar    1  UNL1       -0.0062
     20 C         141.1182  145.4031  159.6218 C.ar    1  UNL1       -0.0014
     21 C         141.6792  145.3303  158.2326 C.ar    1  UNL1        0.0203
     22 C         141.2267  144.2488  157.2968 C.ar    1  UNL1        0.0985
     23 N         140.2132  143.2403  157.7502 N.ar    1  UNL1       -0.2461
     24 C         139.6522  143.3132  159.1394 C.ar    1  UNL1        0.0817
     25 C         138.6387  142.3046  159.5928 C.3     1  UNL1        0.1499
     26 O         138.1862  141.2231  158.6570 O.3     1  UNL1       -0.3785
     27 C         138.0777  142.3774  160.9821 C.3     1  UNL1        0.0371
     28 H         138.6429  141.3194  157.8067 H       1  UNL1        0.2108
@<TRIPOS>BOND
     1     9    10    1
     2    10    11   ar
     3    11    12   ar
     4    12    13   ar
     5    13    14   ar
     6    14    15   ar
     7     1    15    1
     8     1     2    1
     9     2     3    1
    10     3     4    1
    11     4    16    1
    12    17    16    1
    13    17    18    1
    14    18    19    1
    15    19    20   ar
    16    20    21   ar
    17    21    22   ar
    18    22    23   ar
    19    23    24   ar
    20    24    25    1
    21    25    26    1
    22    25    27    1
    23     4     5    1
    24     5     6    1
    25     6     7    1
    26    15    10   ar
    27     6     1    1
    28    27    17    1
    29    24    19   ar
    30    26    28    1
    31     7     8    1
@<TRIPOS>MOLECULE
*****
 28 31 0 0 0
SMALL
GASTEIGER

@<TRIPOS>ATOM
      1 C         139.0388  139.6354  163.2937 C.3     1  UNL1        0.0517
      2 C         140.1453  138.8883  162.6098 C.3     1  UNL1        0.0241
      3 C         140.2066  138.8445  161.1117 C.3     1  UNL1        0.0726
      4 N         139.1613  139.5476  160.2974 N.3     1  UNL1       -0.2706
      5 C         138.0549  140.2946  160.9812 C.3     1  UNL1        0.1020
      6 C         137.9936  140.3385  162.4793 C.3     1  UNL1        0.1304
      7 O         136.8871  141.0856  163.1631 O.3     1  UNL1       -0.3827
      8 H         136.9950  141.0145  164.1245 H       1  UNL1        0.2104
      9 C         140.5968  141.7110  164.7983 C.3     1  UNL1        0.0307
     10 C         139.7565  140.7171  165.5441 C.ar    1  UNL1       -0.0257
     11 C         139.6953  140.7610  167.0422 C.ar    1  UNL1       -0.0046
     12 C         138.8551  139.7671  167.7880 C.ar    1  UNL1       -0.0003
     13 C         138.0761  138.7292  167.0355 C.ar    1  UNL1       -0.0003
     14 C         138.1374  138.6853  165.5375 C.ar    1  UNL1       -0.0045
     15 C         138.9776  139.6793  164.7917 C.ar    1  UNL1       -0.0240
     16 C         139.2226  139.5037  158.7993 C.3     1  UNL1        0.0725
     17 C         140.4411  138.9598  158.1141 C.3     1  UNL1        0.0232
     18 C         140.3644  137.6617  157.3664 C.3     1  UNL1        0.0291
     19 C         141.5829  137.1178  156.6812 C.ar    1  UNL1       -0.0062
     20 C         141.5063  135.8197  155.9334 C.ar    1  UNL1       -0.0014
     21 C         142.7247  135.2758  155.2482 C.ar    1  UNL1        0.0203
     22 C         144.0199  136.0300  155.3108 C.ar    1  UNL1        0.0985
     23 N         144.0965  137.3280  156.0586 N.ar    1  UNL1       -0.2461
     24 C         142.8781  137.8719  156.7438 C.ar    1  UNL1        0.0817
     25 C         142.9547  139.1700  157.4916 C.3     1  UNL1        0.1499
     26 O         144.2498  139.9241  157.5542 O.3     1  UNL1       -0.3785
     27 C         141.7362  139.7139  158.1767 C.3     1  UNL1        0.0371
     28 H         144.9309  139.4383  157.0633 H       1  UNL1        0.2108
@<TRIPOS>BOND
     1     9    10    1
     2    10    11   ar
     3    11    12   ar
     4    12    13   ar
     5    13    14   ar
     6    14    15   ar
     7     1    15    1
     8     1     2    1
     9     2     3    1
    10     3     4    1
    11     4    16    1
    12    17    16    1
    13    17    18    1
    14    18    19    1
    15    19    20   ar
    16    20    21   ar
    17    21    22   ar
    18    22    23   ar
    19    23    24   ar
    20    24    25    1
    21    25    26    1
    22    25    27    1
    23     4     5    1
    24     5     6    1
    25     6     7    1
    26    15    10   ar
    27     6     1    1
    28    27    17    1
    29    24    19   ar
    30    26    28    1
    31     7     8    1
@<TRIPOS>MOLECULE
*****
 28 31 0 0 0
SMALL
GASTEIGER

@<TRIPOS>ATOM
      1 C         140.1717  142.0911  166.6434 C.3     1  UNL1        0.0517
      2 C         140.0529  143.0682  165.5115 C.3     1  UNL1        0.0241
      3 C         139.2145  142.7308  164.3143 C.3     1  UNL1        0.0726
      4 N         138.4949  141.4163  164.2490 N.3     1  UNL1       -0.2706
      5 C         138.6137  140.4392  165.3809 C.3     1  UNL1        0.1020
      6 C         139.4520  140.7766  166.5781 C.3     1  UNL1        0.1304
      7 O         139.5708  139.7995  167.7100 O.3     1  UNL1       -0.3827
      8 H         140.1448  140.1704  168.3984 H       1  UNL1        0.2104
      9 C         143.0423  141.2271  166.7560 C.3     1  UNL1        0.0307
     10 C         142.4453  141.9965  167.8969 C.ar    1  UNL1       -0.0257
     11 C         143.2838  142.3339  169.0941 C.ar    1  UNL1       -0.0046
     12 C         142.6868  143.1033  170.2350 C.ar    1  UNL1       -0.0003
     13 C         141.2514  143.5354  170.1786 C.ar    1  UNL1       -0.0003
     14 C         140.4131  143.1980  168.9815 C.ar    1  UNL1       -0.0045
     15 C         141.0100  142.4285  167.8406 C.ar    1  UNL1       -0.0240
     16 C         137.6565  141.0789  163.0518 C.3     1  UNL1        0.0725
     17 C         138.2812  140.4104  161.8631 C.3     1  UNL1        0.0232
     18 C         137.8974  140.8347  160.4765 C.3     1  UNL1        0.0291
     19 C         138.5221  140.1662  159.2877 C.ar    1  UNL1       -0.0062
     20 C         138.1383  140.5905  157.9011 C.ar    1  UNL1       -0.0014
     21 C         138.7629  139.9220  156.7125 C.ar    1  UNL1        0.0203
     22 C         139.7713  138.8293  156.9104 C.ar    1  UNL1        0.0985
     23 N         140.1550  138.4051  158.2970 N.ar    1  UNL1       -0.2461
     24 C         139.5304  139.0735  159.4856 C.ar    1  UNL1        0.0817
     25 C         139.9142  138.6493  160.8723 C.3     1  UNL1        0.1499
     26 O         140.9225  137.5566  161.0703 O.3     1  UNL1       -0.3785
     27 C         139.2895  139.3177  162.0610 C.3     1  UNL1        0.0371
     28 H         141.2247  137.2351  160.2064 H       1  UNL1        0.2108
@<TRIPOS>BOND
     1     9    10    1
     2    10    11   ar
     3    11    12   ar
     4    12    13   ar
     5    13    14   ar
     6    14    15   ar
     7     1    15    1
     8     1     2    1
     9     2     3    1
    10     3     4    1
    11     4    16    1
    12    17    16    1
    13    17    18    1
    14    18    19    1
    15    19    20   ar
    16    20    21   ar
    17    21    22   ar
    18    22    23   ar
    19    23    24   ar
    20    24    25    1
    21    25    26    1
    22    25    27    1
    23     4     5    1
    24     5     6    1
    25     6     7    1
    26    15    10   ar
    27     6     1    1
    28    27    17    1
    29    24    19   ar
    30    26    28    1
    31     7     8    1
