@<TRIPOS>MOLECULE
*****
 32 35 0 0 0
SMALL
GASTEIGER

@<TRIPOS>ATOM
      1 C         142.3265  140.2100  164.1970 C.2     1  UNL1        0.1397
      2 C         142.7576  140.4903  162.7879 C.2     1  UNL1        0.1355
      3 N         142.2666  141.7205  162.0840 N.pl3   1  UNL1       -0.1998
      4 C         141.3445  142.6704  162.7891 C.2     1  UNL1        0.3442
      5 N         140.9134  142.3901  164.1982 N.2     1  UNL1       -0.0580
      6 C         141.4044  141.1599  164.9021 C.3     1  UNL1        0.2695
      7 H         142.5496  141.9044  161.1591 H       1  UNL1        0.2983
      8 C         140.9733  140.8797  166.3113 C.ar    1  UNL1        0.0414
      9 C         139.7135  140.1078  166.5707 C.ar    1  UNL1        0.0019
     10 C         139.2824  139.8276  167.9798 C.ar    1  UNL1        0.0113
     11 C         140.1110  140.3192  169.1295 C.ar    1  UNL1        0.0585
     12 CL        139.6798  140.0389  170.5386 Cl      1  UNL1       -0.0822
     13 C         141.3707  141.0910  168.8701 C.ar    1  UNL1        0.0226
     14 C         141.8019  141.3713  167.4609 C.ar    1  UNL1        0.0589
     15 CL        143.0616  142.1431  167.2015 Cl      1  UNL1       -0.0824
     16 C         140.8534  143.9006  162.0852 C.ar    1  UNL1        0.1931
     17 N         140.8957  144.1462  160.6060 N.ar    1  UNL1       -0.2297
     18 C         140.3023  145.4986  160.3435 C.ar    1  UNL1        0.1067
     19 C         139.8933  146.0888  161.6604 C.ar    1  UNL1        0.0577
     20 S         140.2339  145.1012  162.7368 S.2     1  UNL1       -0.0586
     21 C         142.8176  138.9798  164.9009 C.2     1  UNL1        0.3447
     22 O         144.1875  138.9616  165.5116 O.2     1  UNL1       -0.2450
     23 O         141.9387  137.7679  164.9941 O.3     1  UNL1       -0.4455
     24 C         139.6720  137.6515  163.7298 C.3     1  UNL1        0.0513
     25 C         141.1354  137.3307  163.8051 C.3     1  UNL1        0.2089
     26 C         143.6798  139.5404  162.0826 C.3     1  UNL1        0.1405
     27 N         143.5003  139.2689  160.6184 N.3     1  UNL1       -0.2617
     28 C         142.8955  137.9735  160.1644 C.3     1  UNL1        0.1050
     29 C         142.7160  137.7020  158.7001 C.3     1  UNL1        0.1595
     30 O         143.1414  138.7259  157.6898 O.3     1  UNL1       -0.3508
     31 C         143.7463  140.0213  158.1438 C.3     1  UNL1        0.1595
     32 C         143.9257  140.2928  159.6081 C.3     1  UNL1        0.1050
@<TRIPOS>BOND
     1    24    25    1
     2    25    23    1
     3    23    21    1
     4    21    22    2
     5    21     1    1
     6     1     2    2
     7     2    26    1
     8    26    27    1
     9    27    28    1
    10    28    29    1
    11    29    30    1
    12    30    31    1
    13    31    32    1
    14     2     3    1
    15     3     4    1
    16     4    16    1
    17    16    17   ar
    18    17    18   ar
    19    18    19   ar
    20    19    20   ar
    21     4     5    2
    22     5     6    1
    23     6     8    1
    24     8     9   ar
    25     9    10   ar
    26    10    11   ar
    27    11    12    1
    28    11    13   ar
    29    13    14   ar
    30    14    15    1
    31     6     1    1
    32    14     8   ar
    33    32    27    1
    34    20    16   ar
    35     3     7    1
@<TRIPOS>MOLECULE
*****
 32 35 0 0 0
SMALL
GASTEIGER

@<TRIPOS>ATOM
      1 C         140.1752  139.7399  164.2050 C.2     1  UNL1        0.1397
      2 C         140.0116  139.8651  162.7193 C.2     1  UNL1        0.1355
      3 N         139.9700  141.2219  162.0810 N.pl3   1  UNL1       -0.1998
      4 C         140.0919  142.4535  162.9286 C.2     1  UNL1        0.3442
      5 N         140.2555  142.3282  164.4143 N.2     1  UNL1       -0.0580
      6 C         140.2972  140.9714  165.0525 C.3     1  UNL1        0.2695
      7 H         139.8626  141.3041  161.1059 H       1  UNL1        0.2983
      8 C         140.4608  140.8462  166.5384 C.ar    1  UNL1        0.0414
      9 C         139.3337  140.3173  167.3751 C.ar    1  UNL1        0.0019
     10 C         139.4973  140.1921  168.8608 C.ar    1  UNL1        0.0113
     11 C         140.7880  140.5958  169.5100 C.ar    1  UNL1        0.0585
     12 CL        140.9515  140.4705  170.9957 Cl      1  UNL1       -0.0822
     13 C         141.9150  141.1246  168.6733 C.ar    1  UNL1        0.0226
     14 C         141.7514  141.2498  167.1874 C.ar    1  UNL1        0.0589
     15 CL        142.8785  141.7787  166.3508 Cl      1  UNL1       -0.0824
     16 C         140.0503  143.8103  162.2903 C.ar    1  UNL1        0.1931
     17 N         139.4985  145.0597  162.9103 N.ar    1  UNL1       -0.2297
     18 C         139.6603  146.1776  161.9232 C.ar    1  UNL1        0.1067
     19 C         140.3122  145.6190  160.6932 C.ar    1  UNL1        0.0577
     20 S         140.5532  144.1559  160.9201 S.2     1  UNL1       -0.0586
     21 C         140.2168  138.3831  164.8432 C.2     1  UNL1        0.3447
     22 O         138.9560  137.7611  165.3660 O.2     1  UNL1       -0.2450
     23 O         141.5193  137.6482  164.9587 O.3     1  UNL1       -0.4455
     24 C         143.7067  138.2367  166.2312 C.3     1  UNL1        0.0513
     25 C         142.8069  138.4129  165.0439 C.3     1  UNL1        0.2089
     26 C         139.8896  138.6335  161.8716 C.3     1  UNL1        0.1405
     27 N         140.9286  138.3322  160.8326 N.3     1  UNL1       -0.2617
     28 C         140.6354  138.5849  159.3834 C.3     1  UNL1        0.1050
     29 C         141.6745  138.2836  158.3443 C.3     1  UNL1        0.1595
     30 O         143.0067  137.7296  158.7545 O.3     1  UNL1       -0.3508
     31 C         143.2999  137.4770  160.2037 C.3     1  UNL1        0.1595
     32 C         142.2609  137.7783  161.2427 C.3     1  UNL1        0.1050
@<TRIPOS>BOND
     1    24    25    1
     2    25    23    1
     3    23    21    1
     4    21    22    2
     5    21     1    1
     6     1     2    2
     7     2    26    1
     8    26    27    1
     9    27    28    1
    10    28    29    1
    11    29    30    1
    12    30    31    1
    13    31    32    1
    14     2     3    1
    15     3     4    1
    16     4    16    1
    17    16    17   ar
    18    17    18   ar
    19    18    19   ar
    20    19    20   ar
    21     4     5    2
    22     5     6    1
    23     6     8    1
    24     8     9   ar
    25     9    10   ar
    26    10    11   ar
    27    11    12    1
    28    11    13   ar
    29    13    14   ar
    30    14    15    1
    31     6     1    1
    32    14     8   ar
    33    32    27    1
    34    20    16   ar
    35     3     7    1
@<TRIPOS>MOLECULE
*****
 32 35 0 0 0
SMALL
GASTEIGER

@<TRIPOS>ATOM
      1 C         140.9075  140.2511  164.5290 C.2     1  UNL1        0.1397
      2 C         140.6599  140.1469  163.0533 C.2     1  UNL1        0.1355
      3 N         140.4562  141.3890  162.2374 N.pl3   1  UNL1       -0.1998
      4 C         140.4999  142.7353  162.8972 C.2     1  UNL1        0.3442
      5 N         140.7475  142.8395  164.3730 N.2     1  UNL1       -0.0580
      6 C         140.9513  141.5974  165.1888 C.3     1  UNL1        0.2695
      7 H         140.2937  141.3205  161.2688 H       1  UNL1        0.2983
      8 C         141.1989  141.7017  166.6646 C.ar    1  UNL1        0.0414
      9 C         140.0909  141.4119  167.6333 C.ar    1  UNL1        0.0019
     10 C         140.3384  141.5161  169.1090 C.ar    1  UNL1        0.0113
     11 C         141.6940  141.9102  169.6161 C.ar    1  UNL1        0.0585
     12 CL        141.9416  142.0145  171.0919 Cl      1  UNL1       -0.0822
     13 C         142.8020  142.2001  168.6475 C.ar    1  UNL1        0.0226
     14 C         142.5545  142.0958  167.1717 C.ar    1  UNL1        0.0589
     15 CL        143.6625  142.3856  166.2030 Cl      1  UNL1       -0.0824
     16 C         140.2962  143.9774  162.0814 C.ar    1  UNL1        0.1931
     17 N         139.7940  145.2953  162.5922 N.ar    1  UNL1       -0.2297
     18 C         139.7462  146.2521  161.4379 C.ar    1  UNL1        0.1067
     19 C         140.2189  145.5255  160.2137 C.ar    1  UNL1        0.0577
     20 S         140.5588  144.1197  160.6114 S.2     1  UNL1       -0.0586
     21 C         141.1113  139.0090  165.3449 C.2     1  UNL1        0.3447
     22 O         142.4861  138.6388  165.8168 O.2     1  UNL1       -0.2450
     23 O         139.9403  138.1370  165.6888 O.3     1  UNL1       -0.4455
     24 C         137.7069  138.5531  166.9494 C.3     1  UNL1        0.0513
     25 C         138.5578  138.7179  165.7250 C.3     1  UNL1        0.2089
     26 C         140.6161  138.8005  162.3933 C.3     1  UNL1        0.1405
     27 N         140.8368  138.6826  160.9144 N.3     1  UNL1       -0.2617
     28 C         142.2320  138.6370  160.3655 C.3     1  UNL1        0.1050
     29 C         142.4527  138.5191  158.8865 C.3     1  UNL1        0.1595
     30 O         141.2781  138.4469  157.9564 O.3     1  UNL1       -0.3508
     31 C         139.8829  138.4925  158.5052 C.3     1  UNL1        0.1595
     32 C         139.6622  138.6104  159.9842 C.3     1  UNL1        0.1050
@<TRIPOS>BOND
     1    24    25    1
     2    25    23    1
     3    23    21    1
     4    21    22    2
     5    21     1    1
     6     1     2    2
     7     2    26    1
     8    26    27    1
     9    27    28    1
    10    28    29    1
    11    29    30    1
    12    30    31    1
    13    31    32    1
    14     2     3    1
    15     3     4    1
    16     4    16    1
    17    16    17   ar
    18    17    18   ar
    19    18    19   ar
    20    19    20   ar
    21     4     5    2
    22     5     6    1
    23     6     8    1
    24     8     9   ar
    25     9    10   ar
    26    10    11   ar
    27    11    12    1
    28    11    13   ar
    29    13    14   ar
    30    14    15    1
    31     6     1    1
    32    14     8   ar
    33    32    27    1
    34    20    16   ar
    35     3     7    1
@<TRIPOS>MOLECULE
*****
 32 35 0 0 0
SMALL
GASTEIGER

@<TRIPOS>ATOM
      1 C         141.3013  139.7476  163.9829 C.2     1  UNL1        0.1397
      2 C         141.4984  139.9672  162.5122 C.2     1  UNL1        0.1355
      3 N         141.2058  141.3087  161.9083 N.pl3   1  UNL1       -0.1998
      4 C         140.7163  142.4307  162.7751 C.2     1  UNL1        0.3442
      5 N         140.5192  142.2111  164.2458 N.2     1  UNL1       -0.0580
      6 C         140.8117  140.8696  164.8497 C.3     1  UNL1        0.2695
      7 H         141.3352  141.4528  160.9431 H       1  UNL1        0.2983
      8 C         140.6146  140.6501  166.3204 C.ar    1  UNL1        0.0414
      9 C         141.7047  141.0115  167.2854 C.ar    1  UNL1        0.0019
     10 C         141.5077  140.7920  168.7560 C.ar    1  UNL1        0.0113
     11 C         140.2205  140.2110  169.2619 C.ar    1  UNL1        0.0585
     12 CL        140.0234  139.9915  170.7325 Cl      1  UNL1       -0.0822
     13 C         139.1304  139.8496  168.2969 C.ar    1  UNL1        0.0226
     14 C         139.3275  140.0691  166.8262 C.ar    1  UNL1        0.0589
     15 CL        138.2374  139.7077  165.8612 Cl      1  UNL1       -0.0824
     16 C         140.4237  143.7723  162.1713 C.ar    1  UNL1        0.1931
     17 N         140.6830  144.1747  160.7497 N.ar    1  UNL1       -0.2297
     18 C         140.2401  145.5981  160.5828 C.ar    1  UNL1        0.1067
     19 C         139.7071  146.0754  161.9012 C.ar    1  UNL1        0.0577
     20 S         139.8207  144.9469  162.8829 S.2     1  UNL1       -0.0586
     21 C         141.5938  138.4060  164.5867 C.2     1  UNL1        0.3447
     22 O         140.5053  137.3800  164.6977 O.2     1  UNL1       -0.2450
     23 O         142.9749  138.0905  165.0797 O.3     1  UNL1       -0.4455
     24 C         144.9573  139.4605  164.1086 C.3     1  UNL1        0.0513
     25 C         143.9893  139.1863  165.2212 C.3     1  UNL1        0.2089
     26 C         141.9880  138.8451  161.6453 C.3     1  UNL1        0.1405
     27 N         142.0994  139.0372  160.1619 N.3     1  UNL1       -0.2617
     28 C         140.9638  138.6387  159.2666 C.3     1  UNL1        0.1050
     29 C         141.0754  138.8308  157.7831 C.3     1  UNL1        0.1595
     30 O         142.3224  139.4214  157.1949 O.3     1  UNL1       -0.3508
     31 C         143.4580  139.8199  158.0902 C.3     1  UNL1        0.1595
     32 C         143.3465  139.6279  159.5737 C.3     1  UNL1        0.1050
@<TRIPOS>BOND
     1    24    25    1
     2    25    23    1
     3    23    21    1
     4    21    22    2
     5    21     1    1
     6     1     2    2
     7     2    26    1
     8    26    27    1
     9    27    28    1
    10    28    29    1
    11    29    30    1
    12    30    31    1
    13    31    32    1
    14     2     3    1
    15     3     4    1
    16     4    16    1
    17    16    17   ar
    18    17    18   ar
    19    18    19   ar
    20    19    20   ar
    21     4     5    2
    22     5     6    1
    23     6     8    1
    24     8     9   ar
    25     9    10   ar
    26    10    11   ar
    27    11    12    1
    28    11    13   ar
    29    13    14   ar
    30    14    15    1
    31     6     1    1
    32    14     8   ar
    33    32    27    1
    34    20    16   ar
    35     3     7    1
@<TRIPOS>MOLECULE
*****
 32 35 0 0 0
SMALL
GASTEIGER

@<TRIPOS>ATOM
      1 C         141.5179  140.4145  164.3890 C.2     1  UNL1        0.1397
      2 C         141.4381  140.3687  162.8919 C.2     1  UNL1        0.1355
      3 N         141.0807  141.6052  162.1216 N.pl3   1  UNL1       -0.1998
      4 C         140.8030  142.8875  162.8485 C.2     1  UNL1        0.3442
      5 N         140.8828  142.9334  164.3457 N.2     1  UNL1       -0.0580
      6 C         141.2403  141.6969  165.1159 C.3     1  UNL1        0.2695
      7 H         141.0283  141.5751  161.1390 H       1  UNL1        0.2983
      8 C         141.3201  141.7428  166.6131 C.ar    1  UNL1        0.0414
      9 C         140.1487  141.3029  167.4404 C.ar    1  UNL1        0.0019
     10 C         140.2284  141.3488  168.9376 C.ar    1  UNL1        0.0113
     11 C         141.4796  141.8345  169.6075 C.ar    1  UNL1        0.0585
     12 CL        141.5593  141.8804  171.1047 Cl      1  UNL1       -0.0822
     13 C         142.6510  142.2743  168.7802 C.ar    1  UNL1        0.0226
     14 C         142.5712  142.2284  167.2830 C.ar    1  UNL1        0.0589
     15 CL        143.7426  142.6683  166.4557 Cl      1  UNL1       -0.0824
     16 C         140.4455  144.1240  162.0783 C.ar    1  UNL1        0.1931
     17 N         140.7114  144.3631  160.6216 N.ar    1  UNL1       -0.2297
     18 C         140.1896  145.7254  160.2725 C.ar    1  UNL1        0.1067
     19 C         139.6011  146.3283  161.5135 C.ar    1  UNL1        0.0577
     20 S         139.7593  145.3386  162.6296 S.2     1  UNL1       -0.0586
     21 C         141.8754  139.1780  165.1592 C.2     1  UNL1        0.3447
     22 O         140.8389  138.1223  165.4060 O.2     1  UNL1       -0.2450
     23 O         143.2694  138.9973  165.6827 O.3     1  UNL1       -0.4455
     24 C         145.0820  140.1825  164.2474 C.3     1  UNL1        0.0513
     25 C         144.4249  138.9230  164.7291 C.3     1  UNL1        0.2089
     26 C         141.7158  139.0863  162.1649 C.3     1  UNL1        0.1405
     27 N         141.4721  138.9936  160.6877 N.3     1  UNL1       -0.2617
     28 C         140.1216  138.5908  160.1742 C.3     1  UNL1        0.1050
     29 C         139.8779  138.4981  158.6970 C.3     1  UNL1        0.1595
     30 O         140.9848  138.8083  157.7334 O.3     1  UNL1       -0.3508
     31 C         142.3353  139.2112  158.2469 C.3     1  UNL1        0.1595
     32 C         142.5790  139.3038  159.7240 C.3     1  UNL1        0.1050
@<TRIPOS>BOND
     1    24    25    1
     2    25    23    1
     3    23    21    1
     4    21    22    2
     5    21     1    1
     6     1     2    2
     7     2    26    1
     8    26    27    1
     9    27    28    1
    10    28    29    1
    11    29    30    1
    12    30    31    1
    13    31    32    1
    14     2     3    1
    15     3     4    1
    16     4    16    1
    17    16    17   ar
    18    17    18   ar
    19    18    19   ar
    20    19    20   ar
    21     4     5    2
    22     5     6    1
    23     6     8    1
    24     8     9   ar
    25     9    10   ar
    26    10    11   ar
    27    11    12    1
    28    11    13   ar
    29    13    14   ar
    30    14    15    1
    31     6     1    1
    32    14     8   ar
    33    32    27    1
    34    20    16   ar
    35     3     7    1
@<TRIPOS>MOLECULE
*****
 32 35 0 0 0
SMALL
GASTEIGER

@<TRIPOS>ATOM
      1 C         142.3337  142.7984  160.9546 C.2     1  UNL1        0.1397
      2 C         142.3209  143.6927  159.7505 C.2     1  UNL1        0.1355
      3 N         143.3644  143.5311  158.6851 N.pl3   1  UNL1       -0.1998
      4 C         144.4206  142.4752  158.8238 C.2     1  UNL1        0.3442
      5 N         144.4334  141.5808  160.0279 N.2     1  UNL1       -0.0580
      6 C         143.3899  141.7425  161.0933 C.3     1  UNL1        0.2695
      7 H         143.3560  144.1181  157.8948 H       1  UNL1        0.2983
      8 C         143.4028  140.8481  162.2975 C.ar    1  UNL1        0.0414
      9 C         142.3927  139.7464  162.4243 C.ar    1  UNL1        0.0019
     10 C         142.4055  138.8520  163.6283 C.ar    1  UNL1        0.0113
     11 C         143.4284  139.0593  164.7058 C.ar    1  UNL1        0.0585
     12 CL        143.4411  138.1649  165.9099 Cl      1  UNL1       -0.0822
     13 C         144.4384  140.1610  164.5791 C.ar    1  UNL1        0.0226
     14 C         144.4256  141.0554  163.3749 C.ar    1  UNL1        0.0589
     15 CL        145.4357  142.1571  163.2482 Cl      1  UNL1       -0.0824
     16 C         145.4641  142.3135  157.7584 C.ar    1  UNL1        0.1931
     17 N         146.8187  142.9575  157.7461 N.ar    1  UNL1       -0.2297
     18 C         147.5280  142.5216  156.4983 C.ar    1  UNL1        0.1067
     19 C         146.6117  141.6081  155.7395 C.ar    1  UNL1        0.0577
     20 S         145.3361  141.4795  156.5182 S.2     1  UNL1       -0.0586
     21 C         141.2903  142.9600  162.0200 C.2     1  UNL1        0.3447
     22 O         139.9009  142.4418  161.7939 O.2     1  UNL1       -0.2450
     23 O         141.6361  143.6399  163.3115 O.3     1  UNL1       -0.4455
     24 C         143.6355  145.1650  163.9647 C.3     1  UNL1        0.0513
     25 C         142.3049  144.9825  163.2968 C.3     1  UNL1        0.2089
     26 C         141.2647  144.7488  159.6117 C.3     1  UNL1        0.1405
     27 N         140.4418  144.8265  158.3600 N.3     1  UNL1       -0.2617
     28 C         140.3686  146.1113  157.5892 C.3     1  UNL1        0.1050
     29 C         139.5457  146.1890  156.3374 C.3     1  UNL1        0.1595
     30 O         138.7960  144.9821  155.8565 O.3     1  UNL1       -0.3508
     31 C         138.8692  143.6974  156.6273 C.3     1  UNL1        0.1595
     32 C         139.6921  143.6196  157.8790 C.3     1  UNL1        0.1050
@<TRIPOS>BOND
     1    24    25    1
     2    25    23    1
     3    23    21    1
     4    21    22    2
     5    21     1    1
     6     1     2    2
     7     2    26    1
     8    26    27    1
     9    27    28    1
    10    28    29    1
    11    29    30    1
    12    30    31    1
    13    31    32    1
    14     2     3    1
    15     3     4    1
    16     4    16    1
    17    16    17   ar
    18    17    18   ar
    19    18    19   ar
    20    19    20   ar
    21     4     5    2
    22     5     6    1
    23     6     8    1
    24     8     9   ar
    25     9    10   ar
    26    10    11   ar
    27    11    12    1
    28    11    13   ar
    29    13    14   ar
    30    14    15    1
    31     6     1    1
    32    14     8   ar
    33    32    27    1
    34    20    16   ar
    35     3     7    1
@<TRIPOS>MOLECULE
*****
 32 35 0 0 0
SMALL
GASTEIGER

@<TRIPOS>ATOM
      1 C         142.3054  142.8344  163.6977 C.2     1  UNL1        0.1397
      2 C         142.2190  142.6545  162.2111 C.2     1  UNL1        0.1355
      3 N         141.3228  141.5992  161.6341 N.pl3   1  UNL1       -0.1998
      4 C         140.5128  140.7237  162.5437 C.2     1  UNL1        0.3442
      5 N         140.5992  140.9035  164.0303 N.2     1  UNL1       -0.0580
      6 C         141.4954  141.9589  164.6073 C.3     1  UNL1        0.2695
      7 H         141.2661  141.4812  160.6583 H       1  UNL1        0.2983
      8 C         141.5817  142.1387  166.0941 C.ar    1  UNL1        0.0414
      9 C         142.6926  141.4891  166.8648 C.ar    1  UNL1        0.0019
     10 C         142.7790  141.6689  168.3515 C.ar    1  UNL1        0.0113
     11 C         141.7544  142.4982  169.0675 C.ar    1  UNL1        0.0585
     12 CL        141.8407  142.6780  170.5541 Cl      1  UNL1       -0.0822
     13 C         140.6435  143.1478  168.2967 C.ar    1  UNL1        0.0226
     14 C         140.5572  142.9680  166.8100 C.ar    1  UNL1        0.0589
     15 CL        139.4463  143.6175  166.0392 Cl      1  UNL1       -0.0824
     16 C         139.6166  139.6683  161.9666 C.ar    1  UNL1        0.1931
     17 N         138.3051  139.2168  162.5376 N.ar    1  UNL1       -0.2297
     18 C         137.7524  138.1486  161.6412 C.ar    1  UNL1        0.1067
     19 C         138.7223  137.9400  160.5161 C.ar    1  UNL1        0.0577
     20 S         139.8744  138.8792  160.7173 S.2     1  UNL1       -0.0586
     21 C         143.2016  143.8897  164.2748 C.2     1  UNL1        0.3447
     22 O         142.7158  145.3039  164.3925 O.2     1  UNL1       -0.2450
     23 O         144.5837  143.5308  164.7340 O.3     1  UNL1       -0.4455
     24 C         145.8079  141.8192  163.2103 C.3     1  UNL1        0.0513
     25 C         145.1164  142.1483  164.5002 C.3     1  UNL1        0.2089
     26 C         143.0290  143.5301  161.3014 C.3     1  UNL1        0.1405
     27 N         142.4397  144.0207  160.0122 N.3     1  UNL1       -0.2617
     28 C         143.0138  143.5646  158.7036 C.3     1  UNL1        0.1050
     29 C         142.4245  144.0553  157.4144 C.3     1  UNL1        0.1595
     30 O         141.2611  145.0019  157.4338 O.3     1  UNL1       -0.3508
     31 C         140.6870  145.4580  158.7424 C.3     1  UNL1        0.1595
     32 C         141.2763  144.9674  160.0316 C.3     1  UNL1        0.1050
@<TRIPOS>BOND
     1    24    25    1
     2    25    23    1
     3    23    21    1
     4    21    22    2
     5    21     1    1
     6     1     2    2
     7     2    26    1
     8    26    27    1
     9    27    28    1
    10    28    29    1
    11    29    30    1
    12    30    31    1
    13    31    32    1
    14     2     3    1
    15     3     4    1
    16     4    16    1
    17    16    17   ar
    18    17    18   ar
    19    18    19   ar
    20    19    20   ar
    21     4     5    2
    22     5     6    1
    23     6     8    1
    24     8     9   ar
    25     9    10   ar
    26    10    11   ar
    27    11    12    1
    28    11    13   ar
    29    13    14   ar
    30    14    15    1
    31     6     1    1
    32    14     8   ar
    33    32    27    1
    34    20    16   ar
    35     3     7    1
@<TRIPOS>MOLECULE
*****
 32 35 0 0 0
SMALL
GASTEIGER

@<TRIPOS>ATOM
      1 C         141.3348  140.2267  160.5895 C.2     1  UNL1        0.1397
      2 C         140.9739  140.4323  159.1482 C.2     1  UNL1        0.1355
      3 N         141.4753  139.4772  158.1059 N.pl3   1  UNL1       -0.1998
      4 C         142.3376  138.3166  158.5048 C.2     1  UNL1        0.3442
      5 N         142.6986  138.1110  159.9461 N.2     1  UNL1       -0.0580
      6 C         142.1972  139.0661  160.9885 C.3     1  UNL1        0.2695
      7 H         141.2383  139.6122  157.1599 H       1  UNL1        0.2983
      8 C         142.5582  138.8605  162.4299 C.ar    1  UNL1        0.0414
      9 C         143.8342  139.4327  162.9724 C.ar    1  UNL1        0.0019
     10 C         144.1953  139.2271  164.4137 C.ar    1  UNL1        0.0113
     11 C         143.2803  138.4493  165.3125 C.ar    1  UNL1        0.0585
     12 CL        143.6413  138.2437  166.7538 Cl      1  UNL1       -0.0822
     13 C         142.0042  137.8771  164.7700 C.ar    1  UNL1        0.0226
     14 C         141.6432  138.0827  163.3286 C.ar    1  UNL1        0.0589
     15 CL        140.3672  137.5105  162.7861 Cl      1  UNL1       -0.0824
     16 C         142.8390  137.3615  157.4625 C.ar    1  UNL1        0.1931
     17 N         142.9760  135.8762  157.6206 N.ar    1  UNL1       -0.2297
     18 C         143.5131  135.3208  156.3349 C.ar    1  UNL1        0.1067
     19 C         143.7080  136.4629  155.3821 C.ar    1  UNL1        0.0577
     20 S         143.2914  137.7241  156.0791 S.2     1  UNL1       -0.0586
     21 C         140.8335  141.1818  161.6318 C.2     1  UNL1        0.3447
     22 O         139.4323  141.0561  162.1524 O.2     1  UNL1       -0.2450
     23 O         141.7332  142.2626  162.1536 O.3     1  UNL1       -0.4455
     24 C         144.1492  143.2167  162.1018 C.3     1  UNL1        0.0513
     25 C         142.9582  142.6560  161.3826 C.3     1  UNL1        0.2089
     26 C         140.1115  141.5930  158.7492 C.3     1  UNL1        0.1405
     27 N         140.6988  142.9708  158.6681 N.3     1  UNL1       -0.2617
     28 C         140.0812  144.0962  159.4440 C.3     1  UNL1        0.1050
     29 C         140.6686  145.4741  159.3628 C.3     1  UNL1        0.1595
     30 O         141.8736  145.7265  158.5059 O.3     1  UNL1       -0.3508
     31 C         142.4912  144.6010  157.7301 C.3     1  UNL1        0.1595
     32 C         141.9038  143.2232  157.8111 C.3     1  UNL1        0.1050
@<TRIPOS>BOND
     1    24    25    1
     2    25    23    1
     3    23    21    1
     4    21    22    2
     5    21     1    1
     6     1     2    2
     7     2    26    1
     8    26    27    1
     9    27    28    1
    10    28    29    1
    11    29    30    1
    12    30    31    1
    13    31    32    1
    14     2     3    1
    15     3     4    1
    16     4    16    1
    17    16    17   ar
    18    17    18   ar
    19    18    19   ar
    20    19    20   ar
    21     4     5    2
    22     5     6    1
    23     6     8    1
    24     8     9   ar
    25     9    10   ar
    26    10    11   ar
    27    11    12    1
    28    11    13   ar
    29    13    14   ar
    30    14    15    1
    31     6     1    1
    32    14     8   ar
    33    32    27    1
    34    20    16   ar
    35     3     7    1
@<TRIPOS>MOLECULE
*****
 32 35 0 0 0
SMALL
GASTEIGER

@<TRIPOS>ATOM
      1 C         142.5720  139.9730  160.1396 C.2     1  UNL1        0.1397
      2 C         143.3385  140.2922  158.8905 C.2     1  UNL1        0.1355
      3 N         143.4133  139.2875  157.7791 N.pl3   1  UNL1       -0.1998
      4 C         142.7216  137.9638  157.9169 C.2     1  UNL1        0.3442
      5 N         141.9550  137.6446  159.1661 N.2     1  UNL1       -0.0580
      6 C         141.8802  138.6493  160.2775 C.3     1  UNL1        0.2695
      7 H         143.9164  139.4970  156.9592 H       1  UNL1        0.2983
      8 C         141.1136  138.3301  161.5267 C.ar    1  UNL1        0.0414
      9 C         141.8150  137.7120  162.6997 C.ar    1  UNL1        0.0019
     10 C         141.0485  137.3928  163.9489 C.ar    1  UNL1        0.0113
     11 C         139.5805  137.6917  164.0251 C.ar    1  UNL1        0.0585
     12 CL        138.8140  137.3725  165.2743 Cl      1  UNL1       -0.0822
     13 C         138.8791  138.3098  162.8521 C.ar    1  UNL1        0.0226
     14 C         139.6457  138.6290  161.6029 C.ar    1  UNL1        0.0589
     15 CL        138.9443  139.2471  160.4299 Cl      1  UNL1       -0.0824
     16 C         142.7964  136.9591  156.8056 C.ar    1  UNL1        0.1931
     17 N         144.0500  136.4645  156.1470 N.ar    1  UNL1       -0.2297
     18 C         143.6591  135.4724  155.0921 C.ar    1  UNL1        0.1067
     19 C         142.1638  135.3538  155.0986 C.ar    1  UNL1        0.0577
     20 S         141.6306  136.2727  156.1576 S.2     1  UNL1       -0.0586
     21 C         142.4972  140.9777  161.2510 C.2     1  UNL1        0.3447
     22 O         141.5238  142.1160  161.1688 O.2     1  UNL1       -0.2450
     23 O         143.3958  140.8441  162.4445 O.3     1  UNL1       -0.4455
     24 C         145.6223  141.7483  163.4320 C.3     1  UNL1        0.0513
     25 C         144.8671  141.1024  162.3083 C.3     1  UNL1        0.2089
     26 C         144.0303  141.6160  158.7526 C.3     1  UNL1        0.1405
     27 N         144.5095  142.0753  157.4075 N.3     1  UNL1       -0.2617
     28 C         145.9680  142.0003  157.0651 C.3     1  UNL1        0.1050
     29 C         146.4472  142.4596  155.7199 C.3     1  UNL1        0.1595
     30 O         145.4679  142.9939  154.7172 O.3     1  UNL1       -0.3508
     31 C         144.0095  143.0690  155.0596 C.3     1  UNL1        0.1595
     32 C         143.5303  142.6097  156.4047 C.3     1  UNL1        0.1050
@<TRIPOS>BOND
     1    24    25    1
     2    25    23    1
     3    23    21    1
     4    21    22    2
     5    21     1    1
     6     1     2    2
     7     2    26    1
     8    26    27    1
     9    27    28    1
    10    28    29    1
    11    29    30    1
    12    30    31    1
    13    31    32    1
    14     2     3    1
    15     3     4    1
    16     4    16    1
    17    16    17   ar
    18    17    18   ar
    19    18    19   ar
    20    19    20   ar
    21     4     5    2
    22     5     6    1
    23     6     8    1
    24     8     9   ar
    25     9    10   ar
    26    10    11   ar
    27    11    12    1
    28    11    13   ar
    29    13    14   ar
    30    14    15    1
    31     6     1    1
    32    14     8   ar
    33    32    27    1
    34    20    16   ar
    35     3     7    1
