@<TRIPOS>MOLECULE
*****
 30 32 0 0 0
SMALL
GASTEIGER

@<TRIPOS>ATOM
      1 N         138.6777  138.4010  166.4819 N.pl3   1  UNL1       -0.2820
      2 H         138.5078  137.4845  166.7987 H       1  UNL1        0.1551
      3 C         140.5667  141.5442  167.9992 C.ar    1  UNL1        0.0553
      4 C         140.1280  140.4855  167.0315 C.ar    1  UNL1        0.0489
      5 C         139.1164  139.4599  167.4497 C.ar    1  UNL1        0.1345
      6 N         138.5436  139.4931  168.8356 N.ar    1  UNL1       -0.2287
      7 C         138.9823  140.5519  169.8032 C.ar    1  UNL1        0.1080
      8 C         139.9939  141.5775  169.3850 C.ar    1  UNL1        0.1079
      9 C         142.9485  142.1390  167.1487 C.3     1  UNL1        0.1085
     10 N         141.5783  142.5698  167.5809 N.pl3   1  UNL1       -0.3310
     11 H         141.3429  143.5257  167.5902 H       1  UNL1        0.1469
     12 C         140.4326  142.6363  170.3528 C.2     1  UNL1        0.3441
     13 O         140.0084  144.0606  170.1493 O.2     1  UNL1       -0.2448
     14 O         141.2955  142.2708  171.5240 O.3     1  UNL1       -0.4413
     15 C         142.2061  141.0816  171.4426 C.3     1  UNL1        0.2560
     16 C         138.4980  138.7387  165.0315 C.ar    1  UNL1        0.1558
     17 C         138.9744  137.7862  163.9751 C.ar    1  UNL1        0.1342
     18 N         138.7946  138.1239  162.5247 N.ar    1  UNL1       -0.2263
     19 C         138.1384  139.4140  162.1307 C.ar    1  UNL1        0.2025
     20 C         137.6620  140.3663  163.1871 C.ar    1  UNL1        0.2543
     21 N         137.8418  140.0287  164.6375 N.ar    1  UNL1       -0.1931
     22 C         137.9586  139.7516  160.6803 C.1     1  UNL1        0.1246
     23 N         137.7788  140.0893  159.2299 N.1     1  UNL1       -0.1891
     24 O         137.0058  141.6564  162.7931 O.3     1  UNL1       -0.4610
     25 C         137.8316  142.8974  162.6257 C.3     1  UNL1        0.1846
     26 C         138.0188  143.9768  163.6504 C.3     1  UNL1        0.0621
     27 C         138.9181  145.0233  163.0623 C.3     1  UNL1        0.0724
     28 N         139.2867  144.5908  161.6740 N.3     1  UNL1       -0.2944
     29 C         138.6152  143.2769  161.4043 C.3     1  UNL1        0.1127
     30 H         140.2985  144.4836  161.6020 H       1  UNL1        0.1234
@<TRIPOS>BOND
     1     9    10    1
     2    10     3    1
     3     3     4   ar
     4     4     5   ar
     5     5     1    1
     6     1    16    1
     7    16    17   ar
     8    17    18   ar
     9    18    19   ar
    10    19    22    1
    11    22    23    3
    12    19    20   ar
    13    20    24    1
    14    25    24    1
    15    25    26    1
    16    26    27    1
    17    27    28    1
    18    28    29    1
    19    20    21   ar
    20     5     6   ar
    21     6     7   ar
    22     7     8   ar
    23     8    12    1
    24    12    13    2
    25    12    14    1
    26    14    15    1
    27     8     3   ar
    28    21    16   ar
    29    29    25    1
    30    10    11    1
    31     1     2    1
    32    28    30    1
@<TRIPOS>MOLECULE
*****
 30 32 0 0 0
SMALL
GASTEIGER

@<TRIPOS>ATOM
      1 N         139.4950  141.2708  165.5536 N.pl3   1  UNL1       -0.2820
      2 H         138.6375  141.1726  166.0272 H       1  UNL1        0.1551
      3 C         138.9501  143.3055  162.1901 C.ar    1  UNL1        0.0553
      4 C         138.7969  142.2603  163.2550 C.ar    1  UNL1        0.0489
      5 C         139.6483  142.3161  164.4887 C.ar    1  UNL1        0.1345
      6 N         140.6529  143.4170  164.6575 N.ar    1  UNL1       -0.2287
      7 C         140.8062  144.4622  163.5925 C.ar    1  UNL1        0.1080
      8 C         139.9547  144.4064  162.3589 C.ar    1  UNL1        0.1079
      9 C         138.5099  142.3879  159.7996 C.3     1  UNL1        0.1085
     10 N         138.0987  143.2497  160.9564 N.pl3   1  UNL1       -0.3310
     11 H         137.2699  143.7788  160.9059 H       1  UNL1        0.1469
     12 C         140.1080  145.4517  161.2939 C.2     1  UNL1        0.3441
     13 O         139.1714  146.6226  161.2520 O.2     1  UNL1       -0.2448
     14 O         141.1979  145.3260  160.2710 O.3     1  UNL1       -0.4413
     15 C         141.8618  144.0007  160.0414 C.3     1  UNL1        0.2560
     16 C         140.6483  140.3752  165.8970 C.ar    1  UNL1        0.1558
     17 C         141.1888  139.4222  164.8724 C.ar    1  UNL1        0.1342
     18 N         142.3421  138.5267  165.2157 N.ar    1  UNL1       -0.2263
     19 C         142.9549  138.5841  166.5837 C.ar    1  UNL1        0.2025
     20 C         142.4144  139.5370  167.6082 C.ar    1  UNL1        0.2543
     21 N         141.2611  140.4326  167.2649 N.ar    1  UNL1       -0.1931
     22 C         144.1081  137.6885  166.9271 C.1     1  UNL1        0.1246
     23 N         145.2614  136.7930  167.2704 N.1     1  UNL1       -0.1891
     24 O         143.0271  139.5945  168.9762 O.3     1  UNL1       -0.4610
     25 C         142.8582  140.8211  169.8228 C.3     1  UNL1        0.1846
     26 C         143.4854  142.1601  169.5700 C.3     1  UNL1        0.0621
     27 C         143.0472  143.0907  170.6618 C.3     1  UNL1        0.0724
     28 N         142.1493  142.3268  171.5894 N.3     1  UNL1       -0.2944
     29 C         142.0325  140.9242  171.0708 C.3     1  UNL1        0.1127
     30 H         141.2279  142.7635  171.6168 H       1  UNL1        0.1234
@<TRIPOS>BOND
     1     9    10    1
     2    10     3    1
     3     3     4   ar
     4     4     5   ar
     5     5     1    1
     6     1    16    1
     7    16    17   ar
     8    17    18   ar
     9    18    19   ar
    10    19    22    1
    11    22    23    3
    12    19    20   ar
    13    20    24    1
    14    25    24    1
    15    25    26    1
    16    26    27    1
    17    27    28    1
    18    28    29    1
    19    20    21   ar
    20     5     6   ar
    21     6     7   ar
    22     7     8   ar
    23     8    12    1
    24    12    13    2
    25    12    14    1
    26    14    15    1
    27     8     3   ar
    28    21    16   ar
    29    29    25    1
    30    10    11    1
    31     1     2    1
    32    28    30    1
@<TRIPOS>MOLECULE
*****
 30 32 0 0 0
SMALL
GASTEIGER

@<TRIPOS>ATOM
      1 N         138.7387  138.0679  163.9273 N.pl3   1  UNL1       -0.2820
      2 H         138.6985  137.0911  163.8111 H       1  UNL1        0.1551
      3 C         140.3760  139.9181  167.0332 C.ar    1  UNL1        0.0553
      4 C         140.2006  139.3324  165.6635 C.ar    1  UNL1        0.0489
      5 C         138.9141  138.6537  165.2971 C.ar    1  UNL1        0.1345
      6 N         137.8029  138.5607  166.3004 N.ar    1  UNL1       -0.2287
      7 C         137.9783  139.1464  167.6701 C.ar    1  UNL1        0.1080
      8 C         139.2648  139.8252  168.0365 C.ar    1  UNL1        0.1079
      9 C         142.8147  140.5887  166.4392 C.3     1  UNL1        0.1085
     10 N         141.6625  140.5968  167.3995 N.pl3   1  UNL1       -0.3310
     11 H         141.7506  141.0476  168.2703 H       1  UNL1        0.1469
     12 C         139.4402  140.4109  169.4063 C.2     1  UNL1        0.3441
     13 O         138.7881  139.7595  170.5896 O.2     1  UNL1       -0.2448
     14 O         140.2676  141.6481  169.5926 O.3     1  UNL1       -0.4413
     15 C         139.8281  142.7054  170.5615 C.3     1  UNL1        0.2560
     16 C         138.6247  138.9704  162.7347 C.ar    1  UNL1        0.1558
     17 C         139.0021  138.4658  161.3734 C.ar    1  UNL1        0.1342
     18 N         138.8881  139.3683  160.1808 N.ar    1  UNL1       -0.2263
     19 C         138.3966  140.7755  160.3494 C.ar    1  UNL1        0.2025
     20 C         138.0192  141.2801  161.7106 C.ar    1  UNL1        0.2543
     21 N         138.1332  140.3775  162.9032 N.ar    1  UNL1       -0.1931
     22 C         138.2825  141.6780  159.1567 C.1     1  UNL1        0.1246
     23 N         138.1685  142.5805  157.9640 N.1     1  UNL1       -0.1891
     24 O         137.5277  142.6873  161.8792 O.3     1  UNL1       -0.4610
     25 C         138.1811  143.5952  162.8784 C.3     1  UNL1        0.1846
     26 C         137.8334  143.7004  164.3338 C.3     1  UNL1        0.0621
     27 C         138.7344  144.7276  164.9526 C.3     1  UNL1        0.0724
     28 N         139.6390  145.2574  163.8796 N.3     1  UNL1       -0.2944
     29 C         139.2970  144.5575  162.5978 C.3     1  UNL1        0.1127
     30 H         140.6118  145.0740  164.1253 H       1  UNL1        0.1234
@<TRIPOS>BOND
     1     9    10    1
     2    10     3    1
     3     3     4   ar
     4     4     5   ar
     5     5     1    1
     6     1    16    1
     7    16    17   ar
     8    17    18   ar
     9    18    19   ar
    10    19    22    1
    11    22    23    3
    12    19    20   ar
    13    20    24    1
    14    25    24    1
    15    25    26    1
    16    26    27    1
    17    27    28    1
    18    28    29    1
    19    20    21   ar
    20     5     6   ar
    21     6     7   ar
    22     7     8   ar
    23     8    12    1
    24    12    13    2
    25    12    14    1
    26    14    15    1
    27     8     3   ar
    28    21    16   ar
    29    29    25    1
    30    10    11    1
    31     1     2    1
    32    28    30    1
@<TRIPOS>MOLECULE
*****
 30 32 0 0 0
SMALL
GASTEIGER

@<TRIPOS>ATOM
      1 N         139.7246  144.0871  164.7869 N.pl3   1  UNL1       -0.2820
      2 H         139.6706  144.7959  165.4680 H       1  UNL1        0.1551
      3 C         139.4908  140.6357  166.7319 C.ar    1  UNL1        0.0553
      4 C         139.8767  142.0425  166.3826 C.ar    1  UNL1        0.0489
      5 C         139.3386  142.6803  165.1362 C.ar    1  UNL1        0.1345
      6 N         138.4147  141.9113  164.2389 N.ar    1  UNL1       -0.2287
      7 C         138.0289  140.5045  164.5882 C.ar    1  UNL1        0.1080
      8 C         138.5669  139.8667  165.8347 C.ar    1  UNL1        0.1079
      9 C         139.4139  140.3159  169.3091 C.3     1  UNL1        0.1085
     10 N         140.0288  139.9979  167.9784 N.pl3   1  UNL1       -0.3310
     11 H         140.7855  139.3705  167.9232 H       1  UNL1        0.1469
     12 C         138.1810  138.4599  166.1840 C.2     1  UNL1        0.3441
     13 O         137.2610  138.1995  167.3397 O.2     1  UNL1       -0.2448
     14 O         138.7150  137.3135  165.3774 O.3     1  UNL1       -0.4413
     15 C         140.0559  137.4234  164.7142 C.3     1  UNL1        0.2560
     16 C         140.1928  144.4140  163.3998 C.ar    1  UNL1        0.1558
     17 C         139.2894  145.1539  162.4582 C.ar    1  UNL1        0.1342
     18 N         139.7576  145.4808  161.0711 N.ar    1  UNL1       -0.2263
     19 C         141.1292  145.0677  160.6257 C.ar    1  UNL1        0.2025
     20 C         142.0325  144.3279  161.5673 C.ar    1  UNL1        0.2543
     21 N         141.5642  144.0010  162.9544 N.ar    1  UNL1       -0.1931
     22 C         141.5974  145.3946  159.2387 C.1     1  UNL1        0.1246
     23 N         142.0656  145.7215  157.8516 N.1     1  UNL1       -0.1891
     24 O         143.4040  143.9148  161.1219 O.3     1  UNL1       -0.4610
     25 C         144.0964  142.7660  161.7933 C.3     1  UNL1        0.1846
     26 C         144.8788  142.8333  163.0714 C.3     1  UNL1        0.0621
     27 C         145.3939  141.4571  163.3725 C.3     1  UNL1        0.0724
     28 N         144.9298  140.5392  162.2806 N.3     1  UNL1       -0.2944
     29 C         144.1279  141.3482  161.3046 C.3     1  UNL1        0.1127
     30 H         144.3502  139.7981  162.6744 H       1  UNL1        0.1234
@<TRIPOS>BOND
     1     9    10    1
     2    10     3    1
     3     3     4   ar
     4     4     5   ar
     5     5     1    1
     6     1    16    1
     7    16    17   ar
     8    17    18   ar
     9    18    19   ar
    10    19    22    1
    11    22    23    3
    12    19    20   ar
    13    20    24    1
    14    25    24    1
    15    25    26    1
    16    26    27    1
    17    27    28    1
    18    28    29    1
    19    20    21   ar
    20     5     6   ar
    21     6     7   ar
    22     7     8   ar
    23     8    12    1
    24    12    13    2
    25    12    14    1
    26    14    15    1
    27     8     3   ar
    28    21    16   ar
    29    29    25    1
    30    10    11    1
    31     1     2    1
    32    28    30    1
@<TRIPOS>MOLECULE
*****
 30 32 0 0 0
SMALL
GASTEIGER

@<TRIPOS>ATOM
      1 N         138.8574  142.9175  164.5396 N.pl3   1  UNL1       -0.2820
      2 H         137.9048  143.0846  164.7238 H       1  UNL1        0.1551
      3 C         141.1542  141.9468  167.6271 C.ar    1  UNL1        0.0553
      4 C         140.3371  142.7625  166.6696 C.ar    1  UNL1        0.0489
      5 C         139.6746  142.1018  165.4972 C.ar    1  UNL1        0.1345
      6 N         139.8292  140.6253  165.2823 N.ar    1  UNL1       -0.2287
      7 C         140.6464  139.8097  166.2398 C.ar    1  UNL1        0.1080
      8 C         141.3089  140.4704  167.4122 C.ar    1  UNL1        0.1079
      9 C         140.9871  143.3186  169.8271 C.3     1  UNL1        0.1085
     10 N         141.8167  142.6075  168.7995 N.pl3   1  UNL1       -0.3310
     11 H         142.7961  142.5745  168.8945 H       1  UNL1        0.1469
     12 C         142.1261  139.6546  168.3697 C.2     1  UNL1        0.3441
     13 O         143.2279  138.7761  167.8558 O.2     1  UNL1       -0.2448
     14 O         141.8414  139.7174  169.8411 O.3     1  UNL1       -0.4413
     15 C         142.9582  139.9655  170.8112 C.3     1  UNL1        0.2560
     16 C         139.4916  143.4787  163.3015 C.ar    1  UNL1        0.1558
     17 C         138.6567  143.7375  162.0825 C.ar    1  UNL1        0.1342
     18 N         139.2909  144.2986  160.8444 N.ar    1  UNL1       -0.2263
     19 C         140.7600  144.6009  160.8253 C.ar    1  UNL1        0.2025
     20 C         141.5949  144.3421  162.0443 C.ar    1  UNL1        0.2543
     21 N         140.9607  143.7810  163.2824 N.ar    1  UNL1       -0.1931
     22 C         141.3942  145.1620  159.5872 C.1     1  UNL1        0.1246
     23 N         142.0285  145.7231  158.3491 N.1     1  UNL1       -0.1891
     24 O         143.0640  144.6444  162.0253 O.3     1  UNL1       -0.4610
     25 C         144.0488  143.6087  162.4807 C.3     1  UNL1        0.1846
     26 C         144.3779  143.2708  163.9046 C.3     1  UNL1        0.0621
     27 C         145.4099  142.1824  163.8962 C.3     1  UNL1        0.0724
     28 N         145.7187  141.8475  162.4670 N.3     1  UNL1       -0.2944
     29 C         144.8775  142.7291  161.5922 C.3     1  UNL1        0.1127
     30 H         145.4984  140.8683  162.2855 H       1  UNL1        0.1234
@<TRIPOS>BOND
     1     9    10    1
     2    10     3    1
     3     3     4   ar
     4     4     5   ar
     5     5     1    1
     6     1    16    1
     7    16    17   ar
     8    17    18   ar
     9    18    19   ar
    10    19    22    1
    11    22    23    3
    12    19    20   ar
    13    20    24    1
    14    25    24    1
    15    25    26    1
    16    26    27    1
    17    27    28    1
    18    28    29    1
    19    20    21   ar
    20     5     6   ar
    21     6     7   ar
    22     7     8   ar
    23     8    12    1
    24    12    13    2
    25    12    14    1
    26    14    15    1
    27     8     3   ar
    28    21    16   ar
    29    29    25    1
    30    10    11    1
    31     1     2    1
    32    28    30    1
@<TRIPOS>MOLECULE
*****
 30 32 0 0 0
SMALL
GASTEIGER

@<TRIPOS>ATOM
      1 N         143.4253  138.6174  167.1903 N.pl3   1  UNL1       -0.2820
      2 H         144.0520  138.0073  167.6422 H       1  UNL1        0.1551
      3 C         142.0362  137.9203  163.5386 C.ar    1  UNL1        0.0553
      4 C         142.1474  137.9322  165.0344 C.ar    1  UNL1        0.0489
      5 C         143.3141  138.6055  165.6944 C.ar    1  UNL1        0.1345
      6 N         144.3695  139.2668  164.8586 N.ar    1  UNL1       -0.2287
      7 C         144.2583  139.2549  163.3628 C.ar    1  UNL1        0.1080
      8 C         143.0916  138.5816  162.7028 C.ar    1  UNL1        0.1079
      9 C         139.4712  137.6859  163.1982 C.3     1  UNL1        0.1085
     10 N         140.8695  137.2470  162.8787 N.pl3   1  UNL1       -0.3310
     11 H         141.0215  136.5171  162.2357 H       1  UNL1        0.1469
     12 C         142.9804  138.5697  161.2070 C.2     1  UNL1        0.3441
     13 O         144.2188  138.5010  160.3634 O.2     1  UNL1       -0.2448
     14 O         141.6308  138.6266  160.5548 O.3     1  UNL1       -0.4413
     15 C         140.9206  139.9403  160.4141 C.3     1  UNL1        0.2560
     16 C         142.5815  139.5588  167.9976 C.ar    1  UNL1        0.1558
     17 C         142.3793  139.3152  169.4639 C.ar    1  UNL1        0.1342
     18 N         141.5356  140.2567  170.2712 N.ar    1  UNL1       -0.2263
     19 C         140.8940  141.4417  169.6122 C.ar    1  UNL1        0.2025
     20 C         141.0963  141.6853  168.1460 C.ar    1  UNL1        0.2543
     21 N         141.9400  140.7438  167.3387 N.ar    1  UNL1       -0.1931
     22 C         140.0503  142.3832  170.4195 C.1     1  UNL1        0.1246
     23 N         139.2065  143.3247  171.2268 N.1     1  UNL1       -0.1891
     24 O         140.4547  142.8703  167.4871 O.3     1  UNL1       -0.4610
     25 C         140.0825  142.8109  166.0352 C.3     1  UNL1        0.1846
     26 C         139.1808  141.7961  165.3971 C.3     1  UNL1        0.0621
     27 C         139.0875  142.1138  163.9341 C.3     1  UNL1        0.0724
     28 N         139.9317  143.3249  163.6681 N.3     1  UNL1       -0.2944
     29 C         140.5465  143.7557  164.9667 C.3     1  UNL1        0.1127
     30 H         139.3515  144.0758  163.2939 H       1  UNL1        0.1234
@<TRIPOS>BOND
     1     9    10    1
     2    10     3    1
     3     3     4   ar
     4     4     5   ar
     5     5     1    1
     6     1    16    1
     7    16    17   ar
     8    17    18   ar
     9    18    19   ar
    10    19    22    1
    11    22    23    3
    12    19    20   ar
    13    20    24    1
    14    25    24    1
    15    25    26    1
    16    26    27    1
    17    27    28    1
    18    28    29    1
    19    20    21   ar
    20     5     6   ar
    21     6     7   ar
    22     7     8   ar
    23     8    12    1
    24    12    13    2
    25    12    14    1
    26    14    15    1
    27     8     3   ar
    28    21    16   ar
    29    29    25    1
    30    10    11    1
    31     1     2    1
    32    28    30    1
@<TRIPOS>MOLECULE
*****
 30 32 0 0 0
SMALL
GASTEIGER

@<TRIPOS>ATOM
      1 N         138.5588  138.4069  164.9497 N.pl3   1  UNL1       -0.2820
      2 H         137.9663  137.6679  165.2181 H       1  UNL1        0.1551
      3 C         140.1875  140.1251  168.1349 C.ar    1  UNL1        0.0553
      4 C         139.1582  139.6034  167.1767 C.ar    1  UNL1        0.0489
      5 C         139.5883  138.9285  165.9080 C.ar    1  UNL1        0.1345
      6 N         141.0478  138.7754  165.5975 N.ar    1  UNL1       -0.2287
      7 C         142.0771  139.2970  166.5557 C.ar    1  UNL1        0.1080
      8 C         141.6470  139.9719  167.8244 C.ar    1  UNL1        0.1079
      9 C         139.7605  140.0389  170.6962 C.3     1  UNL1        0.1085
     10 N         139.7574  140.7999  169.4036 N.pl3   1  UNL1       -0.3310
     11 H         139.4731  141.7423  169.3879 H       1  UNL1        0.1469
     12 C         142.6765  140.4936  168.7827 C.2     1  UNL1        0.3441
     13 O         143.2014  139.6090  169.8744 O.2     1  UNL1       -0.2448
     14 O         143.1810  141.8999  168.6491 O.3     1  UNL1       -0.4413
     15 C         143.9265  142.5400  169.7824 C.3     1  UNL1        0.2560
     16 C         138.4323  139.0111  163.5827 C.ar    1  UNL1        0.1558
     17 C         138.6401  138.1606  162.3646 C.ar    1  UNL1        0.1342
     18 N         138.5135  138.7649  160.9975 N.ar    1  UNL1       -0.2263
     19 C         138.1793  140.2196  160.8485 C.ar    1  UNL1        0.2025
     20 C         137.9716  141.0700  162.0666 C.ar    1  UNL1        0.2543
     21 N         138.0981  140.4658  163.4336 N.ar    1  UNL1       -0.1931
     22 C         138.0528  140.8239  159.4815 C.1     1  UNL1        0.1246
     23 N         137.9263  141.4281  158.1144 N.1     1  UNL1       -0.1891
     24 O         137.6374  142.5248  161.9176 O.3     1  UNL1       -0.4610
     25 C         138.2494  143.5336  162.8436 C.3     1  UNL1        0.1846
     26 C         137.8830  143.7460  164.2826 C.3     1  UNL1        0.0621
     27 C         138.7425  144.8508  164.8216 C.3     1  UNL1        0.0724
     28 N         139.6402  145.3212  163.7157 N.3     1  UNL1       -0.2944
     29 C         139.3354  144.5071  162.4933 C.3     1  UNL1        0.1127
     30 H         140.6159  145.1920  163.9833 H       1  UNL1        0.1234
@<TRIPOS>BOND
     1     9    10    1
     2    10     3    1
     3     3     4   ar
     4     4     5   ar
     5     5     1    1
     6     1    16    1
     7    16    17   ar
     8    17    18   ar
     9    18    19   ar
    10    19    22    1
    11    22    23    3
    12    19    20   ar
    13    20    24    1
    14    25    24    1
    15    25    26    1
    16    26    27    1
    17    27    28    1
    18    28    29    1
    19    20    21   ar
    20     5     6   ar
    21     6     7   ar
    22     7     8   ar
    23     8    12    1
    24    12    13    2
    25    12    14    1
    26    14    15    1
    27     8     3   ar
    28    21    16   ar
    29    29    25    1
    30    10    11    1
    31     1     2    1
    32    28    30    1
@<TRIPOS>MOLECULE
*****
 30 32 0 0 0
SMALL
GASTEIGER

@<TRIPOS>ATOM
      1 N         144.3373  141.1434  163.7795 N.pl3   1  UNL1       -0.2820
      2 H         145.2406  140.8582  163.5113 H       1  UNL1        0.1551
      3 C         142.6140  141.2491  167.3529 C.ar    1  UNL1        0.0553
      4 C         143.1836  141.6988  166.0402 C.ar    1  UNL1        0.0489
      5 C         143.7677  140.6936  165.0923 C.ar    1  UNL1        0.1345
      6 N         143.7823  139.2388  165.4572 N.ar    1  UNL1       -0.2287
      7 C         143.2128  138.7891  166.7700 C.ar    1  UNL1        0.1080
      8 C         142.6286  139.7942  167.7178 C.ar    1  UNL1        0.1079
      9 C         140.6671  142.8252  168.0423 C.3     1  UNL1        0.1085
     10 N         142.0298  142.2542  168.3008 N.pl3   1  UNL1       -0.3310
     11 H         142.5409  142.5392  169.0926 H       1  UNL1        0.1469
     12 C         142.0591  139.3445  169.0306 C.2     1  UNL1        0.3441
     13 O         142.9333  138.6408  170.0258 O.2     1  UNL1       -0.2448
     14 O         140.6152  139.5984  169.3482 O.3     1  UNL1       -0.4413
     15 C         140.2265  140.1369  170.6931 C.3     1  UNL1        0.2560
     16 C         143.5305  142.0276  162.8755 C.ar    1  UNL1        0.1558
     17 C         144.0711  143.3617  162.4535 C.ar    1  UNL1        0.1342
     18 N         143.2643  144.2459  161.5494 N.ar    1  UNL1       -0.2263
     19 C         141.9170  143.7960  161.0674 C.ar    1  UNL1        0.2025
     20 C         141.3765  142.4619  161.4894 C.ar    1  UNL1        0.2543
     21 N         142.1832  141.5777  162.3935 N.ar    1  UNL1       -0.1931
     22 C         141.1102  144.6802  160.1633 C.1     1  UNL1        0.1246
     23 N         140.3034  145.5644  159.2593 N.1     1  UNL1       -0.1891
     24 O         140.0291  142.0120  161.0074 O.3     1  UNL1       -0.4610
     25 C         138.8690  141.9680  161.9572 C.3     1  UNL1        0.1846
     26 C         138.6456  142.8895  163.1195 C.3     1  UNL1        0.0621
     27 C         137.3671  142.4857  163.7922 C.3     1  UNL1        0.0724
     28 N         136.8004  141.3146  163.0456 N.3     1  UNL1       -0.2944
     29 C         137.7286  140.9946  161.9116 C.3     1  UNL1        0.1127
     30 H         135.8773  141.5501  162.6813 H       1  UNL1        0.1234
@<TRIPOS>BOND
     1     9    10    1
     2    10     3    1
     3     3     4   ar
     4     4     5   ar
     5     5     1    1
     6     1    16    1
     7    16    17   ar
     8    17    18   ar
     9    18    19   ar
    10    19    22    1
    11    22    23    3
    12    19    20   ar
    13    20    24    1
    14    25    24    1
    15    25    26    1
    16    26    27    1
    17    27    28    1
    18    28    29    1
    19    20    21   ar
    20     5     6   ar
    21     6     7   ar
    22     7     8   ar
    23     8    12    1
    24    12    13    2
    25    12    14    1
    26    14    15    1
    27     8     3   ar
    28    21    16   ar
    29    29    25    1
    30    10    11    1
    31     1     2    1
    32    28    30    1
@<TRIPOS>MOLECULE
*****
 30 32 0 0 0
SMALL
GASTEIGER

@<TRIPOS>ATOM
      1 N         143.2062  142.2440  165.3336 N.pl3   1  UNL1       -0.2820
      2 H         144.1722  142.1248  165.4818 H       1  UNL1        0.1551
      3 C         141.0618  144.4910  162.8633 C.ar    1  UNL1        0.0553
      4 C         141.5528  143.8409  164.1227 C.ar    1  UNL1        0.0489
      5 C         142.7152  142.8941  164.0741 C.ar    1  UNL1        0.1345
      6 N         143.3867  142.5975  162.7660 N.ar    1  UNL1       -0.2287
      7 C         142.8957  143.2476  161.5066 C.ar    1  UNL1        0.1080
      8 C         141.7332  144.1944  161.5552 C.ar    1  UNL1        0.1079
      9 C         138.5323  144.9295  163.2626 C.3     1  UNL1        0.1085
     10 N         139.8993  145.4377  162.9119 N.pl3   1  UNL1       -0.3310
     11 H         140.0335  146.3926  162.7136 H       1  UNL1        0.1469
     12 C         141.2423  144.8445  160.2957 C.2     1  UNL1        0.3441
     13 O         139.7794  145.1240  160.1169 O.2     1  UNL1       -0.2448
     14 O         142.2142  145.2151  159.2149 O.3     1  UNL1       -0.4413
     15 C         141.7152  145.7889  157.9220 C.3     1  UNL1        0.2560
     16 C         142.2254  141.7755  166.3673 C.ar    1  UNL1        0.1558
     17 C         142.4274  142.1340  167.8098 C.ar    1  UNL1        0.1342
     18 N         141.4466  141.6655  168.8435 N.ar    1  UNL1       -0.2263
     19 C         140.2638  140.8385  168.4347 C.ar    1  UNL1        0.2025
     20 C         140.0618  140.4801  166.9923 C.ar    1  UNL1        0.2543
     21 N         141.0426  140.9486  165.9586 N.ar    1  UNL1       -0.1931
     22 C         139.2830  140.3701  169.4684 C.1     1  UNL1        0.1246
     23 N         138.3022  139.9016  170.5021 N.1     1  UNL1       -0.1891
     24 O         138.8789  139.6531  166.5835 O.3     1  UNL1       -0.4610
     25 C         138.7660  139.1507  165.1746 C.3     1  UNL1        0.1846
     26 C         139.1631  137.7878  164.6900 C.3     1  UNL1        0.0621
     27 C         138.8786  137.7178  163.2189 C.3     1  UNL1        0.0724
     28 N         138.3056  139.0375  162.7944 N.3     1  UNL1       -0.2944
     29 C         138.2360  139.9230  164.0031 C.3     1  UNL1        0.1127
     30 H         137.3704  138.9014  162.4106 H       1  UNL1        0.1234
@<TRIPOS>BOND
     1     9    10    1
     2    10     3    1
     3     3     4   ar
     4     4     5   ar
     5     5     1    1
     6     1    16    1
     7    16    17   ar
     8    17    18   ar
     9    18    19   ar
    10    19    22    1
    11    22    23    3
    12    19    20   ar
    13    20    24    1
    14    25    24    1
    15    25    26    1
    16    26    27    1
    17    27    28    1
    18    28    29    1
    19    20    21   ar
    20     5     6   ar
    21     6     7   ar
    22     7     8   ar
    23     8    12    1
    24    12    13    2
    25    12    14    1
    26    14    15    1
    27     8     3   ar
    28    21    16   ar
    29    29    25    1
    30    10    11    1
    31     1     2    1
    32    28    30    1
