@<TRIPOS>MOLECULE
*****
 36 41 0 0 0
SMALL
GASTEIGER

@<TRIPOS>ATOM
      1 S         139.9937  143.9913  158.3918 S.3     1  UNL1       -0.0756
      2 C         139.6524  140.9644  160.7975 C.ar    1  UNL1        0.1669
      3 N         138.2297  141.4330  160.7175 N.ar    1  UNL1       -0.1282
      4 N         138.1844  142.6238  159.8066 N.ar    1  UNL1       -0.1221
      5 C         139.5792  142.8913  159.3236 C.ar    1  UNL1        0.1932
      6 N         140.4864  141.8658  159.9361 N.ar    1  UNL1       -0.2884
      7 C         141.9676  141.7601  159.7242 C.3     1  UNL1        0.1340
      8 C         138.0270  138.8206  167.1231 C.3     1  UNL1        0.0521
      9 C         138.5585  139.0653  165.7419 C.ar    1  UNL1        0.0593
     10 C         138.0577  140.2306  164.9410 C.ar    1  UNL1        0.0147
     11 C         138.5893  140.4752  163.5599 C.ar    1  UNL1        0.0028
     12 C         139.6216  139.5546  162.9795 C.ar    1  UNL1        0.0206
     13 C         140.1532  139.7992  161.5983 C.ar    1  UNL1        0.0374
     14 C         141.1855  138.8786  161.0181 C.ar    1  UNL1        0.0031
     15 C         141.6863  137.7133  161.8190 C.ar    1  UNL1        0.0016
     16 C         141.1548  137.4687  163.2001 C.ar    1  UNL1        0.0191
     17 C         140.1224  138.3893  163.7804 C.ar    1  UNL1        0.0810
     18 N         139.5909  138.1446  165.1616 N.ar    1  UNL1       -0.2497
     19 C         140.3877  145.3304  158.9408 C.3     1  UNL1        0.0666
     20 C         141.0863  145.4221  160.2651 C.3     1  UNL1        0.0294
     21 C         140.2902  145.6212  161.5207 C.3     1  UNL1        0.0730
     22 N         140.4890  144.7012  162.6886 N.3     1  UNL1       -0.2720
     23 C         141.5747  143.6778  162.5334 C.3     1  UNL1        0.0768
     24 C         142.0154  142.6265  163.5086 C.3     1  UNL1        0.0434
     25 C         141.4792  142.3391  164.8796 C.ar    1  UNL1       -0.0216
     26 C         142.2060  141.1959  165.5237 C.ar    1  UNL1        0.0357
     27 C         141.8235  140.7454  166.9024 C.ar    1  UNL1        0.1762
     28 O         142.3553  139.6563  167.7861 O.2     1  UNL1       -0.3537
     29 N         141.5748  139.6759  169.0669 N.ar    1  UNL1       -0.0814
     30 C         140.5605  140.7772  168.9747 C.ar    1  UNL1        0.1009
     31 C         139.5670  141.1517  170.0343 C.3     1  UNL1        0.0557
     32 C         140.7142  141.4381  167.6371 C.ar    1  UNL1        0.0535
     33 C         139.9874  142.5814  166.9929 C.ar    1  UNL1       -0.0001
     34 C         140.3699  143.0319  165.6143 C.ar    1  UNL1       -0.0245
     35 C         139.5229  144.1831  165.1592 C.3     1  UNL1        0.0433
     36 C         139.5759  144.9260  163.8571 C.3     1  UNL1        0.0768
@<TRIPOS>BOND
     1     8     9    1
     2     9    10   ar
     3    10    11   ar
     4    11    12   ar
     5    12    13   ar
     6    13     2    1
     7     2     3   ar
     8     3     4   ar
     9     4     5   ar
    10     5     1    1
    11     1    19    1
    12    19    20    1
    13    20    21    1
    14    21    22    1
    15    22    23    1
    16    23    24    1
    17    24    25    1
    18    25    26   ar
    19    26    27   ar
    20    27    28   ar
    21    28    29   ar
    22    29    30   ar
    23    30    31    1
    24    30    32   ar
    25    32    33   ar
    26    33    34   ar
    27    34    35    1
    28    35    36    1
    29     5     6   ar
    30     6     7    1
    31    13    14   ar
    32    14    15   ar
    33    15    16   ar
    34    16    17   ar
    35    17    18   ar
    36    18     9   ar
    37    17    12   ar
    38     6     2   ar
    39    36    22    1
    40    34    25   ar
    41    32    27   ar
@<TRIPOS>MOLECULE
*****
 36 41 0 0 0
SMALL
GASTEIGER

@<TRIPOS>ATOM
      1 S         137.3706  139.5854  161.4147 S.3     1  UNL1       -0.0756
      2 C         139.3329  142.3981  163.2323 C.ar    1  UNL1        0.1669
      3 N         138.2299  142.1332  164.2139 N.ar    1  UNL1       -0.1282
      4 N         137.3607  141.0474  163.6524 N.ar    1  UNL1       -0.1221
      5 C         137.9263  140.6411  162.3239 C.ar    1  UNL1        0.1932
      6 N         139.1452  141.4759  162.0643 N.ar    1  UNL1       -0.2884
      7 C         140.0224  141.4016  160.8497 C.3     1  UNL1        0.1340
      8 C         146.1384  141.5985  163.7761 C.3     1  UNL1        0.0521
      9 C         144.7115  142.0508  163.6798 C.ar    1  UNL1        0.0593
     10 C         143.6136  141.0410  163.5212 C.ar    1  UNL1        0.0147
     11 C         142.1868  141.4934  163.4249 C.ar    1  UNL1        0.0028
     12 C         141.8576  142.9555  163.4872 C.ar    1  UNL1        0.0206
     13 C         140.4306  143.4079  163.3909 C.ar    1  UNL1        0.0374
     14 C         140.1016  144.8700  163.4532 C.ar    1  UNL1        0.0031
     15 C         141.1994  145.8798  163.6119 C.ar    1  UNL1        0.0016
     16 C         142.6263  145.4274  163.7082 C.ar    1  UNL1        0.0191
     17 C         142.9554  143.9653  163.6458 C.ar    1  UNL1        0.0810
     18 N         144.3824  143.5130  163.7422 N.ar    1  UNL1       -0.2497
     19 C         137.8087  138.1588  161.5662 C.3     1  UNL1        0.0666
     20 C         139.0132  137.8283  162.3969 C.3     1  UNL1        0.0294
     21 C         138.8412  137.2708  163.7788 C.3     1  UNL1        0.0730
     22 N         139.2808  138.0694  164.9699 N.3     1  UNL1       -0.2720
     23 C         138.2274  138.3251  166.0068 C.3     1  UNL1        0.0768
     24 C         138.3487  139.0813  167.2966 C.3     1  UNL1        0.0434
     25 C         139.5533  139.7685  167.8680 C.ar    1  UNL1       -0.0216
     26 C         139.2435  140.4098  169.1882 C.ar    1  UNL1        0.0357
     27 C         140.3146  141.1519  169.9312 C.ar    1  UNL1        0.1762
     28 O         140.3060  141.8803  171.2424 O.2     1  UNL1       -0.3537
     29 N         141.6815  142.4313  171.4756 N.ar    1  UNL1       -0.0814
     30 C         142.5402  142.0434  170.3086 C.ar    1  UNL1        0.1009
     31 C         143.9894  142.3861  170.1277 C.3     1  UNL1        0.0557
     32 C         141.6955  141.2527  169.3541 C.ar    1  UNL1        0.0535
     33 C         142.0052  140.6115  168.0338 C.ar    1  UNL1       -0.0001
     34 C         140.9341  139.8694  167.2908 C.ar    1  UNL1       -0.0245
     35 C         141.4514  139.3079  165.9997 C.3     1  UNL1        0.0433
     36 C         140.7155  138.5068  164.9668 C.3     1  UNL1        0.0768
@<TRIPOS>BOND
     1     8     9    1
     2     9    10   ar
     3    10    11   ar
     4    11    12   ar
     5    12    13   ar
     6    13     2    1
     7     2     3   ar
     8     3     4   ar
     9     4     5   ar
    10     5     1    1
    11     1    19    1
    12    19    20    1
    13    20    21    1
    14    21    22    1
    15    22    23    1
    16    23    24    1
    17    24    25    1
    18    25    26   ar
    19    26    27   ar
    20    27    28   ar
    21    28    29   ar
    22    29    30   ar
    23    30    31    1
    24    30    32   ar
    25    32    33   ar
    26    33    34   ar
    27    34    35    1
    28    35    36    1
    29     5     6   ar
    30     6     7    1
    31    13    14   ar
    32    14    15   ar
    33    15    16   ar
    34    16    17   ar
    35    17    18   ar
    36    18     9   ar
    37    17    12   ar
    38     6     2   ar
    39    36    22    1
    40    34    25   ar
    41    32    27   ar
@<TRIPOS>MOLECULE
*****
 36 41 0 0 0
SMALL
GASTEIGER

@<TRIPOS>ATOM
      1 S         142.2191  144.2196  158.5647 S.3     1  UNL1       -0.0756
      2 C         141.8838  141.4618  161.2754 C.ar    1  UNL1        0.1669
      3 N         143.0591  142.2365  161.7938 N.ar    1  UNL1       -0.1282
      4 N         143.3277  143.3637  160.8414 N.ar    1  UNL1       -0.1221
      5 C         142.3184  143.2859  159.7345 C.ar    1  UNL1        0.1932
      6 N         141.4261  142.1105  160.0027 N.ar    1  UNL1       -0.2884
      7 C         140.2775  141.6623  159.1483 C.3     1  UNL1        0.1340
      8 C         143.5494  138.0993  167.0347 C.3     1  UNL1        0.0521
      9 C         142.9804  138.6373  165.7553 C.ar    1  UNL1        0.0593
     10 C         143.5908  139.8479  165.1136 C.ar    1  UNL1        0.0147
     11 C         143.0218  140.3859  163.8342 C.ar    1  UNL1        0.0028
     12 C         141.8424  139.7133  163.1965 C.ar    1  UNL1        0.0206
     13 C         141.2734  140.2513  161.9171 C.ar    1  UNL1        0.0374
     14 C         140.0940  139.5786  161.2796 C.ar    1  UNL1        0.0031
     15 C         139.4836  138.3680  161.9213 C.ar    1  UNL1        0.0016
     16 C         140.0526  137.8300  163.2006 C.ar    1  UNL1        0.0191
     17 C         141.2320  138.5026  163.8382 C.ar    1  UNL1        0.0810
     18 N         141.8010  137.9646  165.1177 N.ar    1  UNL1       -0.2497
     19 C         141.4383  145.4945  158.6870 C.3     1  UNL1        0.0666
     20 C         140.1626  145.5200  159.4757 C.3     1  UNL1        0.0294
     21 C         140.1939  145.8323  160.9425 C.3     1  UNL1        0.0730
     22 N         139.9312  144.7487  161.9459 N.3     1  UNL1       -0.2720
     23 C         138.7854  143.8334  161.6303 C.3     1  UNL1        0.0768
     24 C         138.2744  142.6670  162.4231 C.3     1  UNL1        0.0434
     25 C         138.7831  142.1278  163.7270 C.ar    1  UNL1       -0.0216
     26 C         137.9829  140.9423  164.1793 C.ar    1  UNL1        0.0357
     27 C         138.3280  140.2508  165.4649 C.ar    1  UNL1        0.1762
     28 O         137.7243  139.0676  166.1616 O.2     1  UNL1       -0.3537
     29 N         138.4964  138.8302  167.4255 N.ar    1  UNL1       -0.0814
     30 C         139.5773  139.8667  167.5100 C.ar    1  UNL1        0.1009
     31 C         140.5853  140.0017  168.6126 C.3     1  UNL1        0.0557
     32 C         139.4732  140.7447  166.2983 C.ar    1  UNL1        0.0535
     33 C         140.2734  141.9302  165.8460 C.ar    1  UNL1       -0.0001
     34 C         139.9283  142.6217  164.5604 C.ar    1  UNL1       -0.0245
     35 C         140.8477  143.7769  164.2956 C.3     1  UNL1        0.0433
     36 C         140.8490  144.7235  163.1320 C.3     1  UNL1        0.0768
@<TRIPOS>BOND
     1     8     9    1
     2     9    10   ar
     3    10    11   ar
     4    11    12   ar
     5    12    13   ar
     6    13     2    1
     7     2     3   ar
     8     3     4   ar
     9     4     5   ar
    10     5     1    1
    11     1    19    1
    12    19    20    1
    13    20    21    1
    14    21    22    1
    15    22    23    1
    16    23    24    1
    17    24    25    1
    18    25    26   ar
    19    26    27   ar
    20    27    28   ar
    21    28    29   ar
    22    29    30   ar
    23    30    31    1
    24    30    32   ar
    25    32    33   ar
    26    33    34   ar
    27    34    35    1
    28    35    36    1
    29     5     6   ar
    30     6     7    1
    31    13    14   ar
    32    14    15   ar
    33    15    16   ar
    34    16    17   ar
    35    17    18   ar
    36    18     9   ar
    37    17    12   ar
    38     6     2   ar
    39    36    22    1
    40    34    25   ar
    41    32    27   ar
@<TRIPOS>MOLECULE
*****
 36 41 0 0 0
SMALL
GASTEIGER

@<TRIPOS>ATOM
      1 S         143.0833  141.7778  159.1148 S.3     1  UNL1       -0.0756
      2 C         141.8166  143.3210  162.4434 C.ar    1  UNL1        0.1669
      3 N         143.0128  144.1813  162.1617 N.ar    1  UNL1       -0.1282
      4 N         143.6328  143.7079  160.8806 N.ar    1  UNL1       -0.1221
      5 C         142.8199  142.5551  160.3704 C.ar    1  UNL1        0.1932
      6 N         141.6975  142.3161  161.3362 N.ar    1  UNL1       -0.2884
      7 C         140.6412  141.2577  161.2161 C.3     1  UNL1        0.1340
      8 C         142.8943  142.0957  169.1208 C.3     1  UNL1        0.0521
      9 C         142.3959  142.4328  167.7467 C.ar    1  UNL1        0.0593
     10 C         143.3120  142.3096  166.5654 C.ar    1  UNL1        0.0147
     11 C         142.8135  142.6468  165.1914 C.ar    1  UNL1        0.0028
     12 C         141.3990  143.1071  164.9987 C.ar    1  UNL1        0.0206
     13 C         140.9006  143.4442  163.6247 C.ar    1  UNL1        0.0374
     14 C         139.4860  143.9046  163.4321 C.ar    1  UNL1        0.0031
     15 C         138.5699  144.0278  164.6134 C.ar    1  UNL1        0.0016
     16 C         139.0683  143.6907  165.9873 C.ar    1  UNL1        0.0191
     17 C         140.4829  143.2303  166.1800 C.ar    1  UNL1        0.0810
     18 N         140.9813  142.8932  167.5541 N.ar    1  UNL1       -0.2497
     19 C         143.1504  140.2801  159.1601 C.3     1  UNL1        0.0666
     20 C         144.1677  139.6008  160.0284 C.3     1  UNL1        0.0294
     21 C         143.7986  138.3597  160.7855 C.3     1  UNL1        0.0730
     22 N         142.8245  138.4371  161.9236 N.3     1  UNL1       -0.2720
     23 C         141.5319  137.7024  161.7248 C.3     1  UNL1        0.0768
     24 C         140.3672  137.5882  162.6634 C.3     1  UNL1        0.0434
     25 C         140.2077  138.1803  164.0322 C.ar    1  UNL1       -0.0216
     26 C         138.8812  137.8210  164.6335 C.ar    1  UNL1        0.0357
     27 C         138.5204  138.3144  166.0033 C.ar    1  UNL1        0.1762
     28 O         137.2956  138.1246  166.8481 O.2     1  UNL1       -0.3537
     29 N         137.5041  138.8599  168.1387 N.ar    1  UNL1       -0.0814
     30 C         138.8578  139.5042  168.0916 C.ar    1  UNL1        0.1009
     31 C         139.4751  140.3391  169.1742 C.3     1  UNL1        0.0557
     32 C         139.4859  139.1671  166.7718 C.ar    1  UNL1        0.0535
     33 C         140.8124  139.5264  166.1705 C.ar    1  UNL1       -0.0001
     34 C         141.1732  139.0330  164.8008 C.ar    1  UNL1       -0.0245
     35 C         142.5369  139.5041  164.3902 C.3     1  UNL1        0.0433
     36 C         143.2717  139.2389  163.1097 C.3     1  UNL1        0.0768
@<TRIPOS>BOND
     1     8     9    1
     2     9    10   ar
     3    10    11   ar
     4    11    12   ar
     5    12    13   ar
     6    13     2    1
     7     2     3   ar
     8     3     4   ar
     9     4     5   ar
    10     5     1    1
    11     1    19    1
    12    19    20    1
    13    20    21    1
    14    21    22    1
    15    22    23    1
    16    23    24    1
    17    24    25    1
    18    25    26   ar
    19    26    27   ar
    20    27    28   ar
    21    28    29   ar
    22    29    30   ar
    23    30    31    1
    24    30    32   ar
    25    32    33   ar
    26    33    34   ar
    27    34    35    1
    28    35    36    1
    29     5     6   ar
    30     6     7    1
    31    13    14   ar
    32    14    15   ar
    33    15    16   ar
    34    16    17   ar
    35    17    18   ar
    36    18     9   ar
    37    17    12   ar
    38     6     2   ar
    39    36    22    1
    40    34    25   ar
    41    32    27   ar
@<TRIPOS>MOLECULE
*****
 36 41 0 0 0
SMALL
GASTEIGER

@<TRIPOS>ATOM
      1 S         139.1973  143.2314  157.7727 S.3     1  UNL1       -0.0756
      2 C         139.4630  140.9106  160.8725 C.ar    1  UNL1        0.1669
      3 N         138.4162  141.8838  161.3279 N.ar    1  UNL1       -0.1282
      4 N         138.1893  142.8716  160.2221 N.ar    1  UNL1       -0.1221
      5 C         139.0958  142.5089  159.0833 C.ar    1  UNL1        0.1932
      6 N         139.8829  141.2970  159.4853 N.ar    1  UNL1       -0.2884
      7 C         140.9098  140.5947  158.6472 C.3     1  UNL1        0.1340
      8 C         137.9002  138.6793  167.1836 C.3     1  UNL1        0.0521
      9 C         138.4241  138.9481  165.8040 C.ar    1  UNL1        0.0593
     10 C         137.8910  140.1046  165.0113 C.ar    1  UNL1        0.0147
     11 C         138.4150  140.3732  163.6317 C.ar    1  UNL1        0.0028
     12 C         139.4721  139.4854  163.0448 C.ar    1  UNL1        0.0206
     13 C         139.9960  139.7542  161.6651 C.ar    1  UNL1        0.0374
     14 C         141.0530  138.8663  161.0783 C.ar    1  UNL1        0.0031
     15 C         141.5861  137.7098  161.8710 C.ar    1  UNL1        0.0016
     16 C         141.0622  137.4412  163.2505 C.ar    1  UNL1        0.0191
     17 C         140.0052  138.3289  163.8374 C.ar    1  UNL1        0.0810
     18 N         139.4812  138.0602  165.2171 N.ar    1  UNL1       -0.2497
     19 C         140.0799  144.4378  157.6478 C.3     1  UNL1        0.0666
     20 C         140.3048  145.3286  158.8337 C.3     1  UNL1        0.0294
     21 C         141.5694  145.2100  159.6316 C.3     1  UNL1        0.0730
     22 N         141.5974  144.3668  160.8719 N.3     1  UNL1       -0.2720
     23 C         140.6756  144.7991  161.9736 C.3     1  UNL1        0.0768
     24 C         140.4722  144.1742  163.3220 C.3     1  UNL1        0.0434
     25 C         141.1402  142.9629  163.9017 C.ar    1  UNL1       -0.0216
     26 C         140.6462  142.6755  165.2886 C.ar    1  UNL1        0.0357
     27 C         141.1886  141.5025  166.0500 C.ar    1  UNL1        0.1762
     28 O         140.8949  140.9744  167.4229 O.2     1  UNL1       -0.3537
     29 N         141.7499  139.7622  167.6460 N.ar    1  UNL1       -0.0814
     30 C         142.5720  139.5413  166.4110 C.ar    1  UNL1        0.1009
     31 C         143.5664  138.4383  166.1994 C.3     1  UNL1        0.0557
     32 C         142.2251  140.6168  165.4247 C.ar    1  UNL1        0.0535
     33 C         142.7192  140.9041  164.0378 C.ar    1  UNL1       -0.0001
     34 C         142.1767  142.0771  163.2763 C.ar    1  UNL1       -0.0245
     35 C         142.8012  142.1840  161.9167 C.3     1  UNL1        0.0433
     36 C         142.5432  143.2031  160.8466 C.3     1  UNL1        0.0768
@<TRIPOS>BOND
     1     8     9    1
     2     9    10   ar
     3    10    11   ar
     4    11    12   ar
     5    12    13   ar
     6    13     2    1
     7     2     3   ar
     8     3     4   ar
     9     4     5   ar
    10     5     1    1
    11     1    19    1
    12    19    20    1
    13    20    21    1
    14    21    22    1
    15    22    23    1
    16    23    24    1
    17    24    25    1
    18    25    26   ar
    19    26    27   ar
    20    27    28   ar
    21    28    29   ar
    22    29    30   ar
    23    30    31    1
    24    30    32   ar
    25    32    33   ar
    26    33    34   ar
    27    34    35    1
    28    35    36    1
    29     5     6   ar
    30     6     7    1
    31    13    14   ar
    32    14    15   ar
    33    15    16   ar
    34    16    17   ar
    35    17    18   ar
    36    18     9   ar
    37    17    12   ar
    38     6     2   ar
    39    36    22    1
    40    34    25   ar
    41    32    27   ar
@<TRIPOS>MOLECULE
*****
 36 41 0 0 0
SMALL
GASTEIGER

@<TRIPOS>ATOM
      1 S         139.2422  138.6238  160.1666 S.3     1  UNL1       -0.0756
      2 C         140.3420  138.8457  163.8824 C.ar    1  UNL1        0.1669
      3 N         138.8535  138.9787  164.0122 N.ar    1  UNL1       -0.1282
      4 N         138.2604  138.9118  162.6361 N.ar    1  UNL1       -0.1221
      5 C         139.3823  138.7374  161.6557 C.ar    1  UNL1        0.1932
      6 N         140.6687  138.6965  162.4260 N.ar    1  UNL1       -0.2884
      7 C         142.0411  138.5349  161.8424 C.3     1  UNL1        0.1340
      8 C         139.5215  140.2272  170.5658 C.3     1  UNL1        0.0521
      9 C         139.9737  139.8853  169.1770 C.ar    1  UNL1        0.0593
     10 C         138.9855  139.8715  168.0486 C.ar    1  UNL1        0.0147
     11 C         139.4377  139.5296  166.6599 C.ar    1  UNL1        0.0028
     12 C         140.8780  139.2014  166.3995 C.ar    1  UNL1        0.0206
     13 C         141.3301  138.8594  165.0107 C.ar    1  UNL1        0.0374
     14 C         142.7705  138.5312  164.7505 C.ar    1  UNL1        0.0031
     15 C         143.7586  138.5450  165.8789 C.ar    1  UNL1        0.0016
     16 C         143.3065  138.8869  167.2676 C.ar    1  UNL1        0.0191
     17 C         141.8662  139.2151  167.5279 C.ar    1  UNL1        0.0810
     18 N         141.4141  139.5570  168.9167 N.ar    1  UNL1       -0.2497
     19 C         139.3057  139.8544  159.3114 C.3     1  UNL1        0.0666
     20 C         140.4448  140.8180  159.4671 C.3     1  UNL1        0.0294
     21 C         140.2381  142.1119  160.1970 C.3     1  UNL1        0.0730
     22 N         140.6423  142.2339  161.6364 N.3     1  UNL1       -0.2720
     23 C         142.0979  142.0138  161.9244 C.3     1  UNL1        0.0768
     24 C         142.8083  142.0653  163.2447 C.3     1  UNL1        0.0434
     25 C         142.2385  142.3496  164.6027 C.ar    1  UNL1       -0.0216
     26 C         143.2990  142.3037  165.6625 C.ar    1  UNL1        0.0357
     27 C         142.9387  142.5609  167.0957 C.ar    1  UNL1        0.1762
     28 O         143.7623  142.5833  168.3492 O.2     1  UNL1       -0.3537
     29 N         142.8504  142.9001  169.4973 N.ar    1  UNL1       -0.0814
     30 C         141.4634  143.0736  168.9534 C.ar    1  UNL1        0.1009
     31 C         140.2370  143.3995  169.7533 C.3     1  UNL1        0.0557
     32 C         141.5179  142.8639  167.4692 C.ar    1  UNL1        0.0535
     33 C         140.4574  142.9098  166.4093 C.ar    1  UNL1       -0.0001
     34 C         140.8176  142.6526  164.9762 C.ar    1  UNL1       -0.0245
     35 C         139.6157  142.7462  164.0837 C.3     1  UNL1        0.0433
     36 C         139.5377  142.5598  162.5973 C.3     1  UNL1        0.0768
@<TRIPOS>BOND
     1     8     9    1
     2     9    10   ar
     3    10    11   ar
     4    11    12   ar
     5    12    13   ar
     6    13     2    1
     7     2     3   ar
     8     3     4   ar
     9     4     5   ar
    10     5     1    1
    11     1    19    1
    12    19    20    1
    13    20    21    1
    14    21    22    1
    15    22    23    1
    16    23    24    1
    17    24    25    1
    18    25    26   ar
    19    26    27   ar
    20    27    28   ar
    21    28    29   ar
    22    29    30   ar
    23    30    31    1
    24    30    32   ar
    25    32    33   ar
    26    33    34   ar
    27    34    35    1
    28    35    36    1
    29     5     6   ar
    30     6     7    1
    31    13    14   ar
    32    14    15   ar
    33    15    16   ar
    34    16    17   ar
    35    17    18   ar
    36    18     9   ar
    37    17    12   ar
    38     6     2   ar
    39    36    22    1
    40    34    25   ar
    41    32    27   ar
@<TRIPOS>MOLECULE
*****
 36 41 0 0 0
SMALL
GASTEIGER

@<TRIPOS>ATOM
      1 S         140.0215  144.0819  158.5540 S.3     1  UNL1       -0.0756
      2 C         140.2300  140.6520  160.3591 C.ar    1  UNL1        0.1669
      3 N         141.3477  140.5257  159.3666 N.ar    1  UNL1       -0.1282
      4 N         141.4055  141.7951  158.5696 N.ar    1  UNL1       -0.1221
      5 C         140.3237  142.7060  159.0696 C.ar    1  UNL1        0.1932
      6 N         139.5973  141.9996  160.1755 N.ar    1  UNL1       -0.2884
      7 C         138.4409  142.5449  160.9601 C.3     1  UNL1        0.1340
      8 C         143.4081  138.3132  165.9877 C.3     1  UNL1        0.0521
      9 C         142.5105  138.6383  164.8306 C.ar    1  UNL1        0.0593
     10 C         142.9229  139.6771  163.8302 C.ar    1  UNL1        0.0147
     11 C         142.0252  140.0020  162.6732 C.ar    1  UNL1        0.0028
     12 C         140.7153  139.2883  162.5166 C.ar    1  UNL1        0.0206
     13 C         139.8177  139.6133  161.3595 C.ar    1  UNL1        0.0374
     14 C         138.5078  138.8995  161.2030 C.ar    1  UNL1        0.0031
     15 C         138.0954  137.8607  162.2034 C.ar    1  UNL1        0.0016
     16 C         138.9929  137.5357  163.3604 C.ar    1  UNL1        0.0191
     17 C         140.3029  138.2495  163.5170 C.ar    1  UNL1        0.0810
     18 N         141.2005  137.9245  164.6741 N.ar    1  UNL1       -0.2497
     19 C         140.3638  145.2849  159.3819 C.3     1  UNL1        0.0666
     20 C         141.1826  145.1288  160.6291 C.3     1  UNL1        0.0294
     21 C         140.6170  145.5447  161.9545 C.3     1  UNL1        0.0730
     22 N         140.8447  144.6926  163.1678 N.3     1  UNL1       -0.2720
     23 C         142.2671  144.2899  163.4226 C.3     1  UNL1        0.0768
     24 C         142.8160  143.4509  164.5385 C.3     1  UNL1        0.0434
     25 C         142.0782  142.8077  165.6749 C.ar    1  UNL1       -0.0216
     26 C         143.0099  142.0514  166.5750 C.ar    1  UNL1        0.0357
     27 C         142.4727  141.3318  167.7764 C.ar    1  UNL1        0.1762
     28 O         143.1432  140.5101  168.8372 O.2     1  UNL1       -0.3537
     29 N         142.0886  140.0389  169.7942 N.ar    1  UNL1       -0.0814
     30 C         140.7665  140.5694  169.3250 C.ar    1  UNL1        0.1009
     31 C         139.4397  140.3409  169.9867 C.3     1  UNL1        0.0557
     32 C         141.0037  141.3684  168.0780 C.ar    1  UNL1        0.0535
     33 C         140.0720  142.1247  167.1779 C.ar    1  UNL1       -0.0001
     34 C         140.6092  142.8443  165.9765 C.ar    1  UNL1       -0.0245
     35 C         139.5153  143.5333  165.2159 C.3     1  UNL1        0.0433
     36 C         139.6202  144.3559  163.9659 C.3     1  UNL1        0.0768
@<TRIPOS>BOND
     1     8     9    1
     2     9    10   ar
     3    10    11   ar
     4    11    12   ar
     5    12    13   ar
     6    13     2    1
     7     2     3   ar
     8     3     4   ar
     9     4     5   ar
    10     5     1    1
    11     1    19    1
    12    19    20    1
    13    20    21    1
    14    21    22    1
    15    22    23    1
    16    23    24    1
    17    24    25    1
    18    25    26   ar
    19    26    27   ar
    20    27    28   ar
    21    28    29   ar
    22    29    30   ar
    23    30    31    1
    24    30    32   ar
    25    32    33   ar
    26    33    34   ar
    27    34    35    1
    28    35    36    1
    29     5     6   ar
    30     6     7    1
    31    13    14   ar
    32    14    15   ar
    33    15    16   ar
    34    16    17   ar
    35    17    18   ar
    36    18     9   ar
    37    17    12   ar
    38     6     2   ar
    39    36    22    1
    40    34    25   ar
    41    32    27   ar
@<TRIPOS>MOLECULE
*****
 36 41 0 0 0
SMALL
GASTEIGER

@<TRIPOS>ATOM
      1 S         142.5231  139.4690  169.1131 S.3     1  UNL1       -0.0756
      2 C         143.2331  141.0068  165.6208 C.ar    1  UNL1        0.1669
      3 N         143.0755  139.5564  165.2722 N.ar    1  UNL1       -0.1282
      4 N         142.7904  138.8038  166.5380 N.ar    1  UNL1       -0.1221
      5 C         142.7717  139.7891  167.6689 C.ar    1  UNL1        0.1932
      6 N         143.0453  141.1506  167.1020 N.ar    1  UNL1       -0.2884
      7 C         143.1184  142.4311  167.8798 C.3     1  UNL1        0.1340
      8 C         143.8786  140.9768  158.7773 C.3     1  UNL1        0.0521
      9 C         143.7906  141.2621  160.2473 C.ar    1  UNL1        0.0593
     10 C         143.4969  140.1506  161.2108 C.ar    1  UNL1        0.0147
     11 C         143.4090  140.4361  162.6808 C.ar    1  UNL1        0.0028
     12 C         143.6148  141.8329  163.1873 C.ar    1  UNL1        0.0206
     13 C         143.5268  142.1182  164.6573 C.ar    1  UNL1        0.0374
     14 C         143.7326  143.5151  165.1637 C.ar    1  UNL1        0.0031
     15 C         144.0264  144.6266  164.2001 C.ar    1  UNL1        0.0016
     16 C         144.1143  144.3412  162.7303 C.ar    1  UNL1        0.0191
     17 C         143.9085  142.9444  162.2238 C.ar    1  UNL1        0.0810
     18 N         143.9964  142.6590  160.7537 N.ar    1  UNL1       -0.2497
     19 C         141.1327  139.5479  169.6701 C.3     1  UNL1        0.0666
     20 C         140.1355  140.4924  169.0668 C.3     1  UNL1        0.0294
     21 C         139.3859  140.1008  167.8280 C.3     1  UNL1        0.0730
     22 N         139.5984  140.8593  166.5515 N.3     1  UNL1       -0.2720
     23 C         139.7975  142.3387  166.6990 C.3     1  UNL1        0.0768
     24 C         140.0310  143.3624  165.6277 C.3     1  UNL1        0.0434
     25 C         140.1231  143.1594  164.1445 C.ar    1  UNL1       -0.0216
     26 C         140.3665  144.4547  163.4281 C.ar    1  UNL1        0.0357
     27 C         140.4911  144.4733  161.9335 C.ar    1  UNL1        0.1762
     28 O         140.7299  145.5892  160.9600 O.2     1  UNL1       -0.3537
     29 N         140.7588  145.0022  159.5799 N.ar    1  UNL1       -0.0814
     30 C         140.5379  143.5235  159.7005 C.ar    1  UNL1        0.1009
     31 C         140.4906  142.5436  158.5656 C.3     1  UNL1        0.0557
     32 C         140.3725  143.1966  161.1550 C.ar    1  UNL1        0.0535
     33 C         140.1291  141.9013  161.8713 C.ar    1  UNL1       -0.0001
     34 C         140.0045  141.8827  163.3660 C.ar    1  UNL1       -0.0245
     35 C         139.7644  140.4936  163.8786 C.3     1  UNL1        0.0433
     36 C         139.5836  140.0382  165.2964 C.3     1  UNL1        0.0768
@<TRIPOS>BOND
     1     8     9    1
     2     9    10   ar
     3    10    11   ar
     4    11    12   ar
     5    12    13   ar
     6    13     2    1
     7     2     3   ar
     8     3     4   ar
     9     4     5   ar
    10     5     1    1
    11     1    19    1
    12    19    20    1
    13    20    21    1
    14    21    22    1
    15    22    23    1
    16    23    24    1
    17    24    25    1
    18    25    26   ar
    19    26    27   ar
    20    27    28   ar
    21    28    29   ar
    22    29    30   ar
    23    30    31    1
    24    30    32   ar
    25    32    33   ar
    26    33    34   ar
    27    34    35    1
    28    35    36    1
    29     5     6   ar
    30     6     7    1
    31    13    14   ar
    32    14    15   ar
    33    15    16   ar
    34    16    17   ar
    35    17    18   ar
    36    18     9   ar
    37    17    12   ar
    38     6     2   ar
    39    36    22    1
    40    34    25   ar
    41    32    27   ar
@<TRIPOS>MOLECULE
*****
 36 41 0 0 0
SMALL
GASTEIGER

@<TRIPOS>ATOM
      1 S         141.8220  139.9392  168.9505 S.3     1  UNL1       -0.0756
      2 C         143.0640  140.6519  165.3429 C.ar    1  UNL1        0.1669
      3 N         142.6662  139.2097  165.2329 N.ar    1  UNL1       -0.1282
      4 N         142.1525  138.7673  166.5709 N.ar    1  UNL1       -0.1221
      5 C         142.2329  139.9359  167.5079 C.ar    1  UNL1        0.1932
      6 N         142.7962  141.1006  166.7489 N.ar    1  UNL1       -0.2884
      7 C         143.0477  142.4732  167.2993 C.3     1  UNL1        0.1340
      8 C         140.2786  145.7946  161.7312 C.3     1  UNL1        0.0521
      9 C         141.1165  144.7201  162.3585 C.ar    1  UNL1        0.0593
     10 C         140.5502  143.8752  163.4610 C.ar    1  UNL1        0.0147
     11 C         141.3882  142.8008  164.0883 C.ar    1  UNL1        0.0028
     12 C         142.7923  142.5713  163.6131 C.ar    1  UNL1        0.0206
     13 C         143.6302  141.4968  164.2405 C.ar    1  UNL1        0.0374
     14 C         145.0343  141.2674  163.7653 C.ar    1  UNL1        0.0031
     15 C         145.6006  142.1124  162.6628 C.ar    1  UNL1        0.0016
     16 C         144.7627  143.1867  162.0355 C.ar    1  UNL1        0.0191
     17 C         143.3586  143.4162  162.5107 C.ar    1  UNL1        0.0810
     18 N         142.5207  144.4907  161.8833 N.ar    1  UNL1       -0.2497
     19 C         140.3673  139.9332  169.3160 C.3     1  UNL1        0.0666
     20 C         139.3382  140.3431  168.3044 C.3     1  UNL1        0.0294
     21 C         138.6263  139.3008  167.4941 C.3     1  UNL1        0.0730
     22 N         138.6640  139.3604  165.9958 N.3     1  UNL1       -0.2720
     23 C         139.0203  138.0789  165.3023 C.3     1  UNL1        0.0768
     24 C         139.1411  137.8142  163.8307 C.3     1  UNL1        0.0434
     25 C         138.9354  138.7654  162.6894 C.ar    1  UNL1       -0.0216
     26 C         139.1567  138.0915  161.3676 C.ar    1  UNL1        0.0357
     27 C         139.0009  138.8686  160.0942 C.ar    1  UNL1        0.1762
     28 O         139.1533  138.4770  158.6543 O.2     1  UNL1       -0.3537
     29 N         138.8704  139.6859  157.8126 N.ar    1  UNL1       -0.0814
     30 C         138.5431  140.8247  158.7323 C.ar    1  UNL1        0.1009
     31 C         138.1960  142.2231  158.3151 C.3     1  UNL1        0.0557
     32 C         138.6237  140.3197  160.1423 C.ar    1  UNL1        0.0535
     33 C         138.4024  140.9935  161.4641 C.ar    1  UNL1       -0.0001
     34 C         138.5582  140.2164  162.7375 C.ar    1  UNL1       -0.0245
     35 C         138.2935  141.0745  163.9390 C.3     1  UNL1        0.0433
     36 C         138.3406  140.6935  165.3891 C.3     1  UNL1        0.0768
@<TRIPOS>BOND
     1     8     9    1
     2     9    10   ar
     3    10    11   ar
     4    11    12   ar
     5    12    13   ar
     6    13     2    1
     7     2     3   ar
     8     3     4   ar
     9     4     5   ar
    10     5     1    1
    11     1    19    1
    12    19    20    1
    13    20    21    1
    14    21    22    1
    15    22    23    1
    16    23    24    1
    17    24    25    1
    18    25    26   ar
    19    26    27   ar
    20    27    28   ar
    21    28    29   ar
    22    29    30   ar
    23    30    31    1
    24    30    32   ar
    25    32    33   ar
    26    33    34   ar
    27    34    35    1
    28    35    36    1
    29     5     6   ar
    30     6     7    1
    31    13    14   ar
    32    14    15   ar
    33    15    16   ar
    34    16    17   ar
    35    17    18   ar
    36    18     9   ar
    37    17    12   ar
    38     6     2   ar
    39    36    22    1
    40    34    25   ar
    41    32    27   ar
