@<TRIPOS>MOLECULE
*****
 36 39 0 0 0
SMALL
GASTEIGER

@<TRIPOS>ATOM
      1 C         138.4129  139.4438  164.6953 C.3     1  UNL1        0.0793
      2 C         137.8996  140.6832  164.0242 C.3     1  UNL1        0.0264
      3 C         137.7577  140.7239  162.5316 C.3     1  UNL1        0.0729
      4 N         138.1291  139.5252  161.7099 N.3     1  UNL1       -0.2689
      5 C         138.6425  138.2858  162.3810 C.3     1  UNL1        0.0729
      6 C         138.7843  138.2451  163.8737 C.3     1  UNL1        0.0264
      7 O         137.6116  138.5743  167.0088 O.2     1  UNL1       -0.2751
      8 C         138.5548  139.4031  166.1880 C.2     1  UNL1        0.2223
      9 N         139.6398  140.1913  166.8601 N.am    1  UNL1       -0.3004
     10 H         140.2588  140.7353  166.3214 H       1  UNL1        0.1497
     11 C         139.7817  140.1506  168.3528 C.3     1  UNL1        0.1172
     12 C         140.7110  141.1038  169.0441 C.ar    1  UNL1        0.0082
     13 C         140.2638  142.5044  169.3412 C.ar    1  UNL1        0.0013
     14 C         141.1931  143.4576  170.0325 C.ar    1  UNL1        0.0364
     15 C         142.5695  143.0101  170.4267 C.ar    1  UNL1        0.1345
     16 O         143.4987  143.9634  171.1181 O.3     1  UNL1       -0.5055
     17 C         143.0166  141.6095  170.1296 C.ar    1  UNL1        0.0477
     18 C         142.0873  140.6564  169.4383 C.ar    1  UNL1        0.0583
     19 CL        142.5345  139.2557  169.1411 Cl      1  UNL1       -0.0824
     20 H         143.2194  144.8383  171.3037 H       1  UNL1        0.2922
     21 C         137.9873  139.5659  160.2172 C.3     1  UNL1        0.1007
     22 C         138.8066  140.5303  159.4119 C.ar    1  UNL1        0.0129
     23 C         140.2469  140.3589  159.0297 C.ar    1  UNL1        0.0176
     24 C         140.6600  141.5582  158.2291 C.ar    1  UNL1        0.0799
     25 N         139.4750  142.4709  158.1164 N.ar    1  UNL1       -0.3038
     26 C         138.3295  141.8356  158.8474 C.ar    1  UNL1        0.0772
     27 C         139.4412  143.7876  157.3987 C.ar    1  UNL1        0.0640
     28 C         140.2149  144.9549  157.9363 C.ar    1  UNL1        0.0175
     29 C         140.1811  146.2715  157.2186 C.ar    1  UNL1        0.0053
     30 C         139.3738  146.4209  155.9633 C.ar    1  UNL1        0.0715
     31 C         138.6001  145.2537  155.4257 C.ar    1  UNL1        0.0053
     32 C         138.6339  143.9370  156.1434 C.ar    1  UNL1        0.0175
     33 C         139.3400  147.7377  155.2455 C.3     1  UNL1        0.4186
     34 F         139.3063  149.0544  154.5278 F       1  UNL1       -0.1659
     35 F         140.0602  147.1222  154.0826 F       1  UNL1       -0.1659
     36 F         138.6198  148.3531  156.4084 F       1  UNL1       -0.1659
@<TRIPOS>BOND
     1     7     8    2
     2     8     9   am
     3     9    11    1
     4    11    12    1
     5    12    13   ar
     6    13    14   ar
     7    14    15   ar
     8    15    16    1
     9    15    17   ar
    10    17    18   ar
    11    18    19    1
    12     8     1    1
    13     1     2    1
    14     2     3    1
    15     3     4    1
    16     4    21    1
    17    21    22    1
    18    22    23   ar
    19    23    24   ar
    20    24    25   ar
    21    25    27    1
    22    27    28   ar
    23    28    29   ar
    24    29    30   ar
    25    30    33    1
    26    33    34    1
    27    33    35    1
    28    33    36    1
    29    30    31   ar
    30    31    32   ar
    31    25    26   ar
    32     4     5    1
    33     5     6    1
    34    18    12   ar
    35     6     1    1
    36    26    22   ar
    37    32    27   ar
    38     9    10    1
    39    16    20    1
@<TRIPOS>MOLECULE
*****
 36 39 0 0 0
SMALL
GASTEIGER

@<TRIPOS>ATOM
      1 C         140.8497  145.0200  157.8949 C.3     1  UNL1        0.0793
      2 C         140.5532  145.3128  159.3359 C.3     1  UNL1        0.0264
      3 C         141.4374  144.7556  160.4118 C.3     1  UNL1        0.0729
      4 N         142.6182  143.9055  160.0468 N.3     1  UNL1       -0.2689
      5 C         142.9147  143.6127  158.6058 C.3     1  UNL1        0.0729
      6 C         142.0304  144.1700  157.5299 C.3     1  UNL1        0.0264
      7 O         139.2054  144.6499  155.9177 O.2     1  UNL1       -0.2751
      8 C         139.9655  145.5773  156.8190 C.2     1  UNL1        0.2223
      9 N         139.8414  147.0619  156.6443 N.am    1  UNL1       -0.3004
     10 H         140.3403  147.6706  157.2358 H       1  UNL1        0.1497
     11 C         138.9572  147.6192  155.5684 C.3     1  UNL1        0.1172
     12 C         139.0836  149.0582  155.1642 C.ar    1  UNL1        0.0082
     13 C         139.6615  149.4135  153.8264 C.ar    1  UNL1        0.0013
     14 C         139.7878  150.8525  153.4222 C.ar    1  UNL1        0.0364
     15 C         139.3362  151.9361  154.3559 C.ar    1  UNL1        0.1345
     16 O         139.4626  153.3752  153.9517 O.3     1  UNL1       -0.5055
     17 C         138.7583  151.5809  155.6937 C.ar    1  UNL1        0.0477
     18 C         138.6320  150.1419  156.0978 C.ar    1  UNL1        0.0583
     19 CL        138.0540  149.7865  157.4357 Cl      1  UNL1       -0.0824
     20 H         139.8236  153.5971  153.1160 H       1  UNL1        0.2922
     21 C         143.5024  143.3483  161.1227 C.3     1  UNL1        0.1007
     22 C         143.1185  142.0810  161.8274 C.ar    1  UNL1        0.0129
     23 C         143.8880  140.7936  161.8080 C.ar    1  UNL1        0.0176
     24 C         143.1429  139.7955  162.6439 C.ar    1  UNL1        0.0799
     25 N         141.9128  140.4660  163.1798 N.ar    1  UNL1       -0.3038
     26 C         141.8978  141.8785  162.6752 C.ar    1  UNL1        0.0772
     27 C         140.8792  139.8350  164.0649 C.ar    1  UNL1        0.0640
     28 C         139.9879  140.6965  164.9095 C.ar    1  UNL1        0.0175
     29 C         138.9544  140.0654  165.7946 C.ar    1  UNL1        0.0053
     30 C         138.8121  138.5728  165.8351 C.ar    1  UNL1        0.0715
     31 C         139.7034  137.7112  164.9905 C.ar    1  UNL1        0.0053
     32 C         140.7369  138.3423  164.1054 C.ar    1  UNL1        0.0175
     33 C         137.7785  137.9416  166.7202 C.3     1  UNL1        0.4186
     34 F         136.7450  137.3104  167.6053 F       1  UNL1       -0.1659
     35 F         137.8900  136.6652  165.9402 F       1  UNL1       -0.1659
     36 F         137.6671  139.2179  167.5002 F       1  UNL1       -0.1659
@<TRIPOS>BOND
     1     7     8    2
     2     8     9   am
     3     9    11    1
     4    11    12    1
     5    12    13   ar
     6    13    14   ar
     7    14    15   ar
     8    15    16    1
     9    15    17   ar
    10    17    18   ar
    11    18    19    1
    12     8     1    1
    13     1     2    1
    14     2     3    1
    15     3     4    1
    16     4    21    1
    17    21    22    1
    18    22    23   ar
    19    23    24   ar
    20    24    25   ar
    21    25    27    1
    22    27    28   ar
    23    28    29   ar
    24    29    30   ar
    25    30    33    1
    26    33    34    1
    27    33    35    1
    28    33    36    1
    29    30    31   ar
    30    31    32   ar
    31    25    26   ar
    32     4     5    1
    33     5     6    1
    34    18    12   ar
    35     6     1    1
    36    26    22   ar
    37    32    27   ar
    38     9    10    1
    39    16    20    1
@<TRIPOS>MOLECULE
*****
 36 39 0 0 0
SMALL
GASTEIGER

@<TRIPOS>ATOM
      1 C         138.5698  139.8792  159.2286 C.3     1  UNL1        0.0793
      2 C         139.7642  139.0034  159.4661 C.3     1  UNL1        0.0264
      3 C         139.9146  138.2777  160.7702 C.3     1  UNL1        0.0729
      4 N         138.8706  138.4277  161.8368 N.3     1  UNL1       -0.2689
      5 C         137.6762  139.3034  161.5993 C.3     1  UNL1        0.0729
      6 C         137.5258  140.0292  160.2951 C.3     1  UNL1        0.0264
      7 O         137.3534  140.1903  156.9541 O.2     1  UNL1       -0.2751
      8 C         138.4193  140.6049  157.9245 C.2     1  UNL1        0.2223
      9 N         139.3349  141.7454  157.5909 N.am    1  UNL1       -0.3004
     10 H         140.0345  142.0175  158.2278 H       1  UNL1        0.1497
     11 C         139.1844  142.4711  156.2868 C.3     1  UNL1        0.1172
     12 C         139.1988  143.9708  156.2571 C.ar    1  UNL1        0.0082
     13 C         140.0898  144.7311  157.1941 C.ar    1  UNL1        0.0013
     14 C         140.1041  146.2307  157.1644 C.ar    1  UNL1        0.0364
     15 C         139.2274  146.9700  156.1975 C.ar    1  UNL1        0.1345
     16 O         139.2417  148.4697  156.1678 O.3     1  UNL1       -0.5055
     17 C         138.3364  146.2098  155.2605 C.ar    1  UNL1        0.0477
     18 C         138.3221  144.7102  155.2903 C.ar    1  UNL1        0.0583
     19 CL        137.4310  143.9499  154.3532 Cl      1  UNL1       -0.0824
     20 H         139.7983  148.9446  156.7531 H       1  UNL1        0.2922
     21 C         139.0211  137.7019  163.1408 C.3     1  UNL1        0.1007
     22 C         140.1455  138.0533  164.0694 C.ar    1  UNL1        0.0129
     23 C         141.4657  137.3473  164.1620 C.ar    1  UNL1        0.0176
     24 C         142.2834  138.0300  165.2182 C.ar    1  UNL1        0.0799
     25 N         141.4685  139.1579  165.7782 N.ar    1  UNL1       -0.3038
     26 C         140.1472  139.1723  165.0682 C.ar    1  UNL1        0.0772
     27 C         141.8992  140.1052  166.8586 C.ar    1  UNL1        0.0640
     28 C         142.7159  141.3151  166.5136 C.ar    1  UNL1        0.0175
     29 C         143.1465  142.2623  167.5939 C.ar    1  UNL1        0.0053
     30 C         142.7605  141.9996  169.0194 C.ar    1  UNL1        0.0715
     31 C         141.9438  140.7896  169.3645 C.ar    1  UNL1        0.0053
     32 C         141.5131  139.8425  168.2841 C.ar    1  UNL1        0.0175
     33 C         143.1912  142.9468  170.0999 C.3     1  UNL1        0.4186
     34 F         143.6219  143.8940  171.1803 F       1  UNL1       -0.1659
     35 F         144.5880  142.4064  170.0168 F       1  UNL1       -0.1659
     36 F         141.7944  143.4871  170.1829 F       1  UNL1       -0.1659
@<TRIPOS>BOND
     1     7     8    2
     2     8     9   am
     3     9    11    1
     4    11    12    1
     5    12    13   ar
     6    13    14   ar
     7    14    15   ar
     8    15    16    1
     9    15    17   ar
    10    17    18   ar
    11    18    19    1
    12     8     1    1
    13     1     2    1
    14     2     3    1
    15     3     4    1
    16     4    21    1
    17    21    22    1
    18    22    23   ar
    19    23    24   ar
    20    24    25   ar
    21    25    27    1
    22    27    28   ar
    23    28    29   ar
    24    29    30   ar
    25    30    33    1
    26    33    34    1
    27    33    35    1
    28    33    36    1
    29    30    31   ar
    30    31    32   ar
    31    25    26   ar
    32     4     5    1
    33     5     6    1
    34    18    12   ar
    35     6     1    1
    36    26    22   ar
    37    32    27   ar
    38     9    10    1
    39    16    20    1
@<TRIPOS>MOLECULE
*****
 36 39 0 0 0
SMALL
GASTEIGER

@<TRIPOS>ATOM
      1 C         138.8771  138.9376  164.7491 C.3     1  UNL1        0.0793
      2 C         139.7837  137.8513  164.2512 C.3     1  UNL1        0.0264
      3 C         139.9129  137.5987  162.7783 C.3     1  UNL1        0.0729
      4 N         139.1355  138.4323  161.8033 N.3     1  UNL1       -0.2689
      5 C         138.2288  139.5186  162.3012 C.3     1  UNL1        0.0729
      6 C         138.0996  139.7712  163.7742 C.3     1  UNL1        0.0264
      7 O         137.5235  138.7314  166.9571 O.2     1  UNL1       -0.2751
      8 C         138.7479  139.1903  166.2220 C.2     1  UNL1        0.2223
      9 N         139.8431  139.9018  166.9598 N.am    1  UNL1       -0.3004
     10 H         140.6466  140.2030  166.4774 H       1  UNL1        0.1497
     11 C         139.7138  140.1545  168.4327 C.3     1  UNL1        0.1172
     12 C         140.6464  141.1116  169.1142 C.ar    1  UNL1        0.0082
     13 C         140.2515  142.5482  169.2878 C.ar    1  UNL1        0.0013
     14 C         141.1840  143.5053  169.9692 C.ar    1  UNL1        0.0364
     15 C         142.5115  143.0257  170.4770 C.ar    1  UNL1        0.1345
     16 O         143.4440  143.9829  171.1584 O.3     1  UNL1       -0.5055
     17 C         142.9064  141.5891  170.3034 C.ar    1  UNL1        0.0477
     18 C         141.9739  140.6321  169.6220 C.ar    1  UNL1        0.0583
     19 CL        142.3688  139.1954  169.4483 Cl      1  UNL1       -0.0824
     20 H         143.1973  144.8803  171.2669 H       1  UNL1        0.2922
     21 C         139.2647  138.1796  160.3304 C.3     1  UNL1        0.1007
     22 C         139.9772  139.1711  159.4590 C.ar    1  UNL1        0.0129
     23 C         139.3391  140.2962  158.6995 C.ar    1  UNL1        0.0176
     24 C         140.4205  141.0319  157.9652 C.ar    1  UNL1        0.0799
     25 N         141.7271  140.3615  158.2709 N.ar    1  UNL1       -0.3038
     26 C         141.4531  139.2115  159.1942 C.ar    1  UNL1        0.0772
     27 C         143.0716  140.7696  157.7457 C.ar    1  UNL1        0.0640
     28 C         143.7188  139.9797  156.6470 C.ar    1  UNL1        0.0175
     29 C         145.0633  140.3878  156.1218 C.ar    1  UNL1        0.0053
     30 C         145.7605  141.5856  156.6953 C.ar    1  UNL1        0.0715
     31 C         145.1132  142.3755  157.7941 C.ar    1  UNL1        0.0053
     32 C         143.7688  141.9674  158.3192 C.ar    1  UNL1        0.0175
     33 C         147.1051  141.9937  156.1701 C.3     1  UNL1        0.4186
     34 F         148.4495  142.4018  155.6449 F       1  UNL1       -0.1659
     35 F         146.9408  141.0495  155.0162 F       1  UNL1       -0.1659
     36 F         147.2692  142.9379  157.3239 F       1  UNL1       -0.1659
@<TRIPOS>BOND
     1     7     8    2
     2     8     9   am
     3     9    11    1
     4    11    12    1
     5    12    13   ar
     6    13    14   ar
     7    14    15   ar
     8    15    16    1
     9    15    17   ar
    10    17    18   ar
    11    18    19    1
    12     8     1    1
    13     1     2    1
    14     2     3    1
    15     3     4    1
    16     4    21    1
    17    21    22    1
    18    22    23   ar
    19    23    24   ar
    20    24    25   ar
    21    25    27    1
    22    27    28   ar
    23    28    29   ar
    24    29    30   ar
    25    30    33    1
    26    33    34    1
    27    33    35    1
    28    33    36    1
    29    30    31   ar
    30    31    32   ar
    31    25    26   ar
    32     4     5    1
    33     5     6    1
    34    18    12   ar
    35     6     1    1
    36    26    22   ar
    37    32    27   ar
    38     9    10    1
    39    16    20    1
@<TRIPOS>MOLECULE
*****
 36 39 0 0 0
SMALL
GASTEIGER

@<TRIPOS>ATOM
      1 C         140.9435  144.8384  157.7664 C.3     1  UNL1        0.0793
      2 C         140.6981  144.8367  159.2462 C.3     1  UNL1        0.0264
      3 C         141.7118  144.2354  160.1739 C.3     1  UNL1        0.0729
      4 N         142.9711  143.6357  159.6219 N.3     1  UNL1       -0.2689
      5 C         143.2166  143.6375  158.1421 C.3     1  UNL1        0.0729
      6 C         142.2028  144.2388  157.2144 C.3     1  UNL1        0.0264
      7 O         138.8996  144.5666  156.1859 O.2     1  UNL1       -0.2751
      8 C         139.9298  145.4397  156.8387 C.2     1  UNL1        0.2223
      9 N         139.9462  146.9143  156.5638 N.am    1  UNL1       -0.3004
     10 H         140.6224  147.4874  156.9923 H       1  UNL1        0.1497
     11 C         138.9325  147.5156  155.6361 C.3     1  UNL1        0.1172
     12 C         139.0462  148.9559  155.2327 C.ar    1  UNL1        0.0082
     13 C         139.5980  149.3160  153.8852 C.ar    1  UNL1        0.0013
     14 C         139.7117  150.7562  153.4818 C.ar    1  UNL1        0.0364
     15 C         139.2737  151.8364  154.4259 C.ar    1  UNL1        0.1345
     16 O         139.3875  153.2766  154.0225 O.3     1  UNL1       -0.5055
     17 C         138.7220  151.4763  155.7734 C.ar    1  UNL1        0.0477
     18 C         138.6082  150.0360  156.1768 C.ar    1  UNL1        0.0583
     19 CL        138.0564  149.6759  157.5244 Cl      1  UNL1       -0.0824
     20 H         139.7321  153.5016  153.1807 H       1  UNL1        0.2922
     21 C         143.9849  143.0344  160.5496 C.3     1  UNL1        0.1007
     22 C         143.8115  143.1616  162.0341 C.ar    1  UNL1        0.0129
     23 C         144.1082  144.3814  162.8551 C.ar    1  UNL1        0.0176
     24 C         143.7911  144.0650  164.2867 C.ar    1  UNL1        0.0799
     25 N         143.2985  142.6496  164.3504 N.ar    1  UNL1       -0.3038
     26 C         143.3111  142.0913  162.9582 C.ar    1  UNL1        0.0772
     27 C         142.8687  141.9205  165.5888 C.ar    1  UNL1        0.0640
     28 C         143.2647  142.4385  166.9397 C.ar    1  UNL1        0.0175
     29 C         142.8349  141.7094  168.1780 C.ar    1  UNL1        0.0053
     30 C         142.0090  140.4624  168.0656 C.ar    1  UNL1        0.0715
     31 C         141.6129  139.9444  166.7147 C.ar    1  UNL1        0.0053
     32 C         142.0428  140.6734  165.4764 C.ar    1  UNL1        0.0175
     33 C         141.5792  139.7332  169.3040 C.3     1  UNL1        0.4186
     34 F         141.1494  139.0041  170.5424 F       1  UNL1       -0.1659
     35 F         142.7234  138.7775  169.1385 F       1  UNL1       -0.1659
     36 F         140.4350  140.6889  169.4695 F       1  UNL1       -0.1659
@<TRIPOS>BOND
     1     7     8    2
     2     8     9   am
     3     9    11    1
     4    11    12    1
     5    12    13   ar
     6    13    14   ar
     7    14    15   ar
     8    15    16    1
     9    15    17   ar
    10    17    18   ar
    11    18    19    1
    12     8     1    1
    13     1     2    1
    14     2     3    1
    15     3     4    1
    16     4    21    1
    17    21    22    1
    18    22    23   ar
    19    23    24   ar
    20    24    25   ar
    21    25    27    1
    22    27    28   ar
    23    28    29   ar
    24    29    30   ar
    25    30    33    1
    26    33    34    1
    27    33    35    1
    28    33    36    1
    29    30    31   ar
    30    31    32   ar
    31    25    26   ar
    32     4     5    1
    33     5     6    1
    34    18    12   ar
    35     6     1    1
    36    26    22   ar
    37    32    27   ar
    38     9    10    1
    39    16    20    1
@<TRIPOS>MOLECULE
*****
 36 39 0 0 0
SMALL
GASTEIGER

@<TRIPOS>ATOM
      1 C         142.7538  138.1182  158.6171 C.3     1  UNL1        0.0793
      2 C         143.0396  139.5452  158.2541 C.3     1  UNL1        0.0264
      3 C         143.6046  140.4816  159.2807 C.3     1  UNL1        0.0729
      4 N         143.8836  139.9910  160.6705 N.3     1  UNL1       -0.2689
      5 C         143.5978  138.5639  161.0336 C.3     1  UNL1        0.0729
      6 C         143.0329  137.6275  160.0069 C.3     1  UNL1        0.0264
      7 O         140.7915  137.3803  157.0826 O.2     1  UNL1       -0.2751
      8 C         142.1889  137.1818  157.5905 C.2     1  UNL1        0.2223
      9 N         143.0213  136.0468  157.0719 N.am    1  UNL1       -0.3004
     10 H         143.9384  135.9165  157.4053 H       1  UNL1        0.1497
     11 C         142.4564  135.1104  156.0452 C.3     1  UNL1        0.1172
     12 C         143.1250  133.7935  155.7827 C.ar    1  UNL1        0.0082
     13 C         144.1986  133.3000  156.7066 C.ar    1  UNL1        0.0013
     14 C         144.8671  131.9832  156.4440 C.ar    1  UNL1        0.0364
     15 C         144.4620  131.1598  155.2575 C.ar    1  UNL1        0.1345
     16 O         145.1305  129.8429  154.9949 O.3     1  UNL1       -0.5055
     17 C         143.3883  131.6533  154.3335 C.ar    1  UNL1        0.0477
     18 C         142.7198  132.9701  154.5961 C.ar    1  UNL1        0.0583
     19 CL        141.6461  133.4637  153.6721 Cl      1  UNL1       -0.0824
     20 H         145.8012  129.5346  155.5721 H       1  UNL1        0.2922
     21 C         144.4486  140.9274  161.6971 C.3     1  UNL1        0.1007
     22 C         144.1378  140.7231  163.1502 C.ar    1  UNL1        0.0129
     23 C         144.6920  139.6392  164.0266 C.ar    1  UNL1        0.0176
     24 C         144.1150  139.8131  165.4002 C.ar    1  UNL1        0.0799
     25 N         143.2040  141.0045  165.3728 N.ar    1  UNL1       -0.3038
     26 C         143.2181  141.5669  163.9823 C.ar    1  UNL1        0.0772
     27 C         142.4171  141.5395  166.5323 C.ar    1  UNL1        0.0640
     28 C         141.1084  142.2329  166.2945 C.ar    1  UNL1        0.0175
     29 C         140.3216  142.7679  167.4540 C.ar    1  UNL1        0.0053
     30 C         140.8434  142.6096  168.8514 C.ar    1  UNL1        0.0715
     31 C         142.1522  141.9163  169.0892 C.ar    1  UNL1        0.0053
     32 C         142.9390  141.3813  167.9297 C.ar    1  UNL1        0.0175
     33 C         140.0565  143.1447  170.0110 C.3     1  UNL1        0.4186
     34 F         139.2697  143.6798  171.1705 F       1  UNL1       -0.1659
     35 F         140.8607  144.4103  169.9726 F       1  UNL1       -0.1659
     36 F         139.2524  141.8791  170.0493 F       1  UNL1       -0.1659
@<TRIPOS>BOND
     1     7     8    2
     2     8     9   am
     3     9    11    1
     4    11    12    1
     5    12    13   ar
     6    13    14   ar
     7    14    15   ar
     8    15    16    1
     9    15    17   ar
    10    17    18   ar
    11    18    19    1
    12     8     1    1
    13     1     2    1
    14     2     3    1
    15     3     4    1
    16     4    21    1
    17    21    22    1
    18    22    23   ar
    19    23    24   ar
    20    24    25   ar
    21    25    27    1
    22    27    28   ar
    23    28    29   ar
    24    29    30   ar
    25    30    33    1
    26    33    34    1
    27    33    35    1
    28    33    36    1
    29    30    31   ar
    30    31    32   ar
    31    25    26   ar
    32     4     5    1
    33     5     6    1
    34    18    12   ar
    35     6     1    1
    36    26    22   ar
    37    32    27   ar
    38     9    10    1
    39    16    20    1
@<TRIPOS>MOLECULE
*****
 36 39 0 0 0
SMALL
GASTEIGER

@<TRIPOS>ATOM
      1 C         142.0139  137.6557  157.9992 C.3     1  UNL1        0.0793
      2 C         140.6212  138.0038  157.5641 C.3     1  UNL1        0.0264
      3 C         139.7143  138.7619  158.4876 C.3     1  UNL1        0.0729
      4 N         140.2001  139.1719  159.8463 N.3     1  UNL1       -0.2689
      5 C         141.5928  138.8239  160.2814 C.3     1  UNL1        0.0729
      6 C         142.4997  138.0657  159.3578 C.3     1  UNL1        0.0264
      7 O         143.9482  137.6305  156.2650 O.2     1  UNL1       -0.2751
      8 C         142.9207  136.8977  157.0758 C.2     1  UNL1        0.2223
      9 N         142.8002  135.4067  156.9630 N.am    1  UNL1       -0.3004
     10 H         142.1259  134.9258  157.4952 H       1  UNL1        0.1497
     11 C         143.7071  134.6487  156.0395 C.3     1  UNL1        0.1172
     12 C         143.9838  133.1951  156.2862 C.ar    1  UNL1        0.0082
     13 C         144.6470  132.7636  157.5605 C.ar    1  UNL1        0.0013
     14 C         144.9237  131.3102  157.8071 C.ar    1  UNL1        0.0364
     15 C         144.5372  130.2882  156.7794 C.ar    1  UNL1        0.1345
     16 O         144.8139  128.8347  157.0260 O.3     1  UNL1       -0.5055
     17 C         143.8739  130.7197  155.5051 C.ar    1  UNL1        0.0477
     18 C         143.5972  132.1732  155.2585 C.ar    1  UNL1        0.0583
     19 CL        142.9339  132.6047  153.9841 Cl      1  UNL1       -0.0824
     20 H         145.2282  128.5652  157.8221 H       1  UNL1        0.2922
     21 C         139.2932  139.9300  160.7698 C.3     1  UNL1        0.1007
     22 C         139.2334  139.5700  162.2247 C.ar    1  UNL1        0.0129
     23 C         138.8050  138.2479  162.7891 C.ar    1  UNL1        0.0176
     24 C         138.8983  138.3298  164.2839 C.ar    1  UNL1        0.0799
     25 N         139.3845  139.7025  164.6435 N.ar    1  UNL1       -0.3038
     26 C         139.5916  140.4690  163.3708 C.ar    1  UNL1        0.0772
     27 C         139.6219  140.2182  166.0319 C.ar    1  UNL1        0.0640
     28 C         140.4639  141.4414  166.2439 C.ar    1  UNL1        0.0175
     29 C         140.7012  141.9570  167.6323 C.ar    1  UNL1        0.0053
     30 C         140.0966  141.2495  168.8087 C.ar    1  UNL1        0.0715
     31 C         139.2546  140.0263  168.5967 C.ar    1  UNL1        0.0053
     32 C         139.0173  139.5107  167.2083 C.ar    1  UNL1        0.0175
     33 C         140.3340  141.7652  170.1972 C.3     1  UNL1        0.4186
     34 F         140.5713  142.2809  171.5856 F       1  UNL1       -0.1659
     35 F         139.7746  143.0984  169.7976 F       1  UNL1       -0.1659
     36 F         140.8933  140.4320  170.5967 F       1  UNL1       -0.1659
@<TRIPOS>BOND
     1     7     8    2
     2     8     9   am
     3     9    11    1
     4    11    12    1
     5    12    13   ar
     6    13    14   ar
     7    14    15   ar
     8    15    16    1
     9    15    17   ar
    10    17    18   ar
    11    18    19    1
    12     8     1    1
    13     1     2    1
    14     2     3    1
    15     3     4    1
    16     4    21    1
    17    21    22    1
    18    22    23   ar
    19    23    24   ar
    20    24    25   ar
    21    25    27    1
    22    27    28   ar
    23    28    29   ar
    24    29    30   ar
    25    30    33    1
    26    33    34    1
    27    33    35    1
    28    33    36    1
    29    30    31   ar
    30    31    32   ar
    31    25    26   ar
    32     4     5    1
    33     5     6    1
    34    18    12   ar
    35     6     1    1
    36    26    22   ar
    37    32    27   ar
    38     9    10    1
    39    16    20    1
@<TRIPOS>MOLECULE
*****
 36 39 0 0 0
SMALL
GASTEIGER

@<TRIPOS>ATOM
      1 C         140.5297  143.3988  163.4547 C.3     1  UNL1        0.0793
      2 C         141.6039  144.2988  162.9196 C.3     1  UNL1        0.0264
      3 C         141.9686  144.2490  161.4655 C.3     1  UNL1        0.0729
      4 N         141.2591  143.2993  160.5464 N.3     1  UNL1       -0.2689
      5 C         140.1850  142.3993  161.0815 C.3     1  UNL1        0.0729
      6 C         139.8203  142.4491  162.5357 C.3     1  UNL1        0.0264
      7 O         139.1799  144.4673  165.4005 O.2     1  UNL1       -0.2751
      8 C         140.1650  143.4486  164.9088 C.2     1  UNL1        0.2223
      9 N         140.7855  142.4797  165.8713 N.am    1  UNL1       -0.3004
     10 H         141.4321  141.8111  165.5486 H       1  UNL1        0.1497
     11 C         140.4208  142.5295  167.3254 C.3     1  UNL1        0.1172
     12 C         141.2636  141.8082  168.3352 C.ar    1  UNL1        0.0082
     13 C         142.6484  142.2962  168.6420 C.ar    1  UNL1        0.0013
     14 C         143.4911  141.5750  169.6517 C.ar    1  UNL1        0.0364
     15 C         142.9491  140.3658  170.3546 C.ar    1  UNL1        0.1345
     16 O         143.7919  139.6446  171.3644 O.3     1  UNL1       -0.5055
     17 C         141.5643  139.8778  170.0478 C.ar    1  UNL1        0.0477
     18 C         140.7216  140.5990  169.0380 C.ar    1  UNL1        0.0583
     19 CL        139.3367  140.1110  168.7311 Cl      1  UNL1       -0.0824
     20 H         144.6569  139.9494  171.5561 H       1  UNL1        0.2922
     21 C         141.6239  143.2495  159.0923 C.3     1  UNL1        0.1007
     22 C         140.7764  143.9638  158.0816 C.ar    1  UNL1        0.0129
     23 C         139.6005  143.3865  157.3510 C.ar    1  UNL1        0.0176
     24 C         139.0533  144.4468  156.4419 C.ar    1  UNL1        0.0799
     25 N         139.8911  145.6795  156.6107 N.ar    1  UNL1       -0.3038
     26 C         140.9560  145.3810  157.6241 C.ar    1  UNL1        0.0772
     27 C         139.6980  146.9820  155.8923 C.ar    1  UNL1        0.0640
     28 C         138.8745  148.0686  156.5177 C.ar    1  UNL1        0.0175
     29 C         138.6814  149.3710  155.7992 C.ar    1  UNL1        0.0053
     30 C         139.3117  149.5869  154.4554 C.ar    1  UNL1        0.0715
     31 C         140.1352  148.5003  153.8299 C.ar    1  UNL1        0.0053
     32 C         140.3283  147.1979  154.5484 C.ar    1  UNL1        0.0175
     33 C         139.1186  150.8895  153.7368 C.3     1  UNL1        0.4186
     34 F         138.9254  152.1920  153.0184 F       1  UNL1       -0.1659
     35 F         138.5108  151.4816  154.9738 F       1  UNL1       -0.1659
     36 F         139.7264  150.2973  152.5000 F       1  UNL1       -0.1659
@<TRIPOS>BOND
     1     7     8    2
     2     8     9   am
     3     9    11    1
     4    11    12    1
     5    12    13   ar
     6    13    14   ar
     7    14    15   ar
     8    15    16    1
     9    15    17   ar
    10    17    18   ar
    11    18    19    1
    12     8     1    1
    13     1     2    1
    14     2     3    1
    15     3     4    1
    16     4    21    1
    17    21    22    1
    18    22    23   ar
    19    23    24   ar
    20    24    25   ar
    21    25    27    1
    22    27    28   ar
    23    28    29   ar
    24    29    30   ar
    25    30    33    1
    26    33    34    1
    27    33    35    1
    28    33    36    1
    29    30    31   ar
    30    31    32   ar
    31    25    26   ar
    32     4     5    1
    33     5     6    1
    34    18    12   ar
    35     6     1    1
    36    26    22   ar
    37    32    27   ar
    38     9    10    1
    39    16    20    1
@<TRIPOS>MOLECULE
*****
 36 39 0 0 0
SMALL
GASTEIGER

@<TRIPOS>ATOM
      1 C         142.9564  139.4887  163.0495 C.3     1  UNL1        0.0793
      2 C         143.4898  140.6427  162.2534 C.3     1  UNL1        0.0264
      3 C         143.2146  140.7293  160.7814 C.3     1  UNL1        0.0729
      4 N         142.4059  139.6620  160.1055 N.3     1  UNL1       -0.2689
      5 C         141.8725  138.5080  160.9016 C.3     1  UNL1        0.0729
      6 C         142.1478  138.4213  162.3736 C.3     1  UNL1        0.0264
      7 O         144.5788  138.9561  165.0076 O.2     1  UNL1       -0.2751
      8 C         143.2316  139.4020  164.5214 C.2     1  UNL1        0.2223
      9 N         142.1597  139.7613  165.5073 N.am    1  UNL1       -0.3004
     10 H         141.2755  140.0540  165.1883 H       1  UNL1        0.1497
     11 C         142.4349  139.6746  166.9793 C.3     1  UNL1        0.1172
     12 C         141.6420  140.5093  167.9410 C.ar    1  UNL1        0.0082
     13 C         140.3738  139.9700  168.5333 C.ar    1  UNL1        0.0013
     14 C         139.5810  140.8046  169.4949 C.ar    1  UNL1        0.0364
     15 C         140.0564  142.1785  169.8643 C.ar    1  UNL1        0.1345
     16 O         139.2635  143.0132  170.8260 O.3     1  UNL1       -0.5055
     17 C         141.3246  142.7178  169.2720 C.ar    1  UNL1        0.0477
     18 C         142.1174  141.8832  168.3103 C.ar    1  UNL1        0.0583
     19 CL        143.3857  142.4224  167.7180 Cl      1  UNL1       -0.0824
     20 H         138.4713  142.6763  171.1960 H       1  UNL1        0.2922
     21 C         142.1307  139.7486  158.6335 C.3     1  UNL1        0.1007
     22 C         141.9141  138.4968  157.8360 C.ar    1  UNL1        0.0129
     23 C         140.7378  138.2074  156.9514 C.ar    1  UNL1        0.0176
     24 C         140.9325  136.8463  156.3518 C.ar    1  UNL1        0.0799
     25 N         142.2292  136.2945  156.8658 N.ar    1  UNL1       -0.3038
     26 C         142.8358  137.3146  157.7831 C.ar    1  UNL1        0.0772
     27 C         142.8162  134.9574  156.5227 C.ar    1  UNL1        0.0640
     28 C         142.5344  134.3349  155.1874 C.ar    1  UNL1        0.0175
     29 C         143.1214  132.9979  154.8444 C.ar    1  UNL1        0.0053
     30 C         143.9901  132.2833  155.8367 C.ar    1  UNL1        0.0715
     31 C         144.2718  132.9058  157.1721 C.ar    1  UNL1        0.0053
     32 C         143.6849  134.2429  157.5151 C.ar    1  UNL1        0.0175
     33 C         144.5771  130.9462  155.4937 C.3     1  UNL1        0.4186
     34 F         145.1641  129.6091  155.1508 F       1  UNL1       -0.1659
     35 F         145.0243  130.7778  156.9156 F       1  UNL1       -0.1659
     36 F         144.1299  131.1146  154.0720 F       1  UNL1       -0.1659
@<TRIPOS>BOND
     1     7     8    2
     2     8     9   am
     3     9    11    1
     4    11    12    1
     5    12    13   ar
     6    13    14   ar
     7    14    15   ar
     8    15    16    1
     9    15    17   ar
    10    17    18   ar
    11    18    19    1
    12     8     1    1
    13     1     2    1
    14     2     3    1
    15     3     4    1
    16     4    21    1
    17    21    22    1
    18    22    23   ar
    19    23    24   ar
    20    24    25   ar
    21    25    27    1
    22    27    28   ar
    23    28    29   ar
    24    29    30   ar
    25    30    33    1
    26    33    34    1
    27    33    35    1
    28    33    36    1
    29    30    31   ar
    30    31    32   ar
    31    25    26   ar
    32     4     5    1
    33     5     6    1
    34    18    12   ar
    35     6     1    1
    36    26    22   ar
    37    32    27   ar
    38     9    10    1
    39    16    20    1
