@<TRIPOS>MOLECULE
*****
 26 28 0 0 0
SMALL
GASTEIGER

@<TRIPOS>ATOM
      1 N         137.9602  141.4693  162.9874 N.ar    1  UNL1       -0.2694
      2 C         137.6917  140.4301  161.9395 C.ar    1  UNL1        0.3331
      3 O         137.1022  140.6779  160.5826 O.2     1  UNL1       -0.2462
      4 N         138.1162  139.0996  162.4868 N.ar    1  UNL1       -0.2630
      5 C         138.0258  137.7833  161.7732 C.3     1  UNL1        0.1366
      6 C         138.6471  139.3165  163.8728 C.ar    1  UNL1        0.1633
      7 N         139.2058  138.3695  164.8932 N.ar    1  UNL1       -0.2251
      8 C         139.6681  138.8872  166.2229 C.ar    1  UNL1        0.1011
      9 C         139.5716  140.3518  166.5323 C.ar    1  UNL1        0.0267
     10 C         139.0129  141.2987  165.5120 C.ar    1  UNL1        0.0224
     11 C         138.5506  140.7810  164.1822 C.ar    1  UNL1        0.0986
     12 C         140.0339  140.8695  167.8622 C.ar    1  UNL1        0.0309
     13 C         139.4509  140.5140  169.1977 C.ar    1  UNL1        0.0070
     14 C         140.2170  141.2583  170.2509 C.ar    1  UNL1        0.0109
     15 C         141.2736  142.0737  169.5662 C.ar    1  UNL1        0.1009
     16 S         141.1604  141.8334  168.0899 S.2     1  UNL1       -0.0831
     17 C         142.2686  142.9718  170.2395 C.3     1  UNL1        0.4241
     18 F         143.2636  143.8698  170.9129 F       1  UNL1       -0.1654
     19 F         141.3297  144.1308  170.0811 F       1  UNL1       -0.1654
     20 F         143.2075  141.8127  170.3980 F       1  UNL1       -0.1654
     21 C         137.6863  142.9388  162.8623 C.3     1  UNL1        0.1956
     22 C         140.4991  145.7001  162.4009 C.3     1  UNL1        0.1150
     23 N         139.4881  144.8012  163.0489 N.am    1  UNL1       -0.2744
     24 C         139.2680  144.8658  164.5312 C.3     1  UNL1        0.1150
     25 C         138.6973  143.8377  162.2145 C.2     1  UNL1        0.2490
     26 O         138.9175  143.7731  160.7321 O.2     1  UNL1       -0.2728
@<TRIPOS>BOND
     1    22    23    1
     2    23    24    1
     3    23    25   am
     4    25    26    2
     5    25    21    1
     6    21     1    1
     7     1     2   ar
     8     2     3    2
     9     2     4   ar
    10     4     5    1
    11     4     6   ar
    12     6     7   ar
    13     7     8   ar
    14     8     9   ar
    15     9    12    1
    16    12    13   ar
    17    13    14   ar
    18    14    15   ar
    19    15    17    1
    20    17    18    1
    21    17    19    1
    22    17    20    1
    23    15    16   ar
    24     9    10   ar
    25    10    11   ar
    26    11     1   ar
    27    11     6   ar
    28    16    12   ar
@<TRIPOS>MOLECULE
*****
 26 28 0 0 0
SMALL
GASTEIGER

@<TRIPOS>ATOM
      1 N         143.5675  142.2421  162.4356 N.ar    1  UNL1       -0.2694
      2 C         143.8452  141.1450  161.4511 C.ar    1  UNL1        0.3331
      3 O         144.1650  141.3256  159.9968 O.2     1  UNL1       -0.2462
      4 N         143.7471  139.8357  162.1764 N.ar    1  UNL1       -0.2630
      5 C         143.9514  138.4770  161.5746 C.3     1  UNL1        0.1366
      6 C         143.4087  140.1236  163.6091 C.ar    1  UNL1        0.1633
      7 N         143.1873  139.2236  164.7885 N.ar    1  UNL1       -0.2251
      8 C         142.8549  139.8109  166.1280 C.ar    1  UNL1        0.1011
      9 C         142.7439  141.2982  166.2883 C.ar    1  UNL1        0.0267
     10 C         142.9653  142.1982  165.1089 C.ar    1  UNL1        0.0224
     11 C         143.2977  141.6109  163.7693 C.ar    1  UNL1        0.0986
     12 C         142.4115  141.8854  167.6280 C.ar    1  UNL1        0.0309
     13 C         143.3980  142.2833  168.6855 C.ar    1  UNL1        0.0070
     14 C         142.6305  142.8217  169.8564 C.ar    1  UNL1        0.0109
     15 C         141.1696  142.7566  169.5225 C.ar    1  UNL1        0.1009
     16 S         141.0342  142.1779  168.1452 S.2     1  UNL1       -0.0831
     17 C         140.0420  143.1934  170.4100 C.3     1  UNL1        0.4241
     18 F         138.9143  143.6302  171.2976 F       1  UNL1       -0.1654
     19 F         139.6755  141.7588  170.6505 F       1  UNL1       -0.1654
     20 F         140.4084  144.6279  170.1696 F       1  UNL1       -0.1654
     21 C         143.5607  143.7124  162.1386 C.3     1  UNL1        0.1956
     22 C         140.1775  145.6235  161.3318 C.3     1  UNL1        0.1150
     23 N         141.3152  145.0186  162.0996 N.am    1  UNL1       -0.2744
     24 C         141.3452  145.1150  163.5962 C.3     1  UNL1        0.1150
     25 C         142.4230  144.3173  161.3709 C.2     1  UNL1        0.2490
     26 O         142.3929  144.2209  159.8742 O.2     1  UNL1       -0.2728
@<TRIPOS>BOND
     1    22    23    1
     2    23    24    1
     3    23    25   am
     4    25    26    2
     5    25    21    1
     6    21     1    1
     7     1     2   ar
     8     2     3    2
     9     2     4   ar
    10     4     5    1
    11     4     6   ar
    12     6     7   ar
    13     7     8   ar
    14     8     9   ar
    15     9    12    1
    16    12    13   ar
    17    13    14   ar
    18    14    15   ar
    19    15    17    1
    20    17    18    1
    21    17    19    1
    22    17    20    1
    23    15    16   ar
    24     9    10   ar
    25    10    11   ar
    26    11     1   ar
    27    11     6   ar
    28    16    12   ar
@<TRIPOS>MOLECULE
*****
 26 28 0 0 0
SMALL
GASTEIGER

@<TRIPOS>ATOM
      1 N         139.6430  139.5570  163.2207 N.ar    1  UNL1       -0.2694
      2 C         140.0179  138.9012  161.9249 C.ar    1  UNL1        0.3331
      3 O         139.1271  138.7380  160.7291 O.2     1  UNL1       -0.2462
      4 N         141.4401  138.4371  162.0347 N.ar    1  UNL1       -0.2630
      5 C         142.2211  137.7285  160.9681 C.3     1  UNL1        0.1366
      6 C         141.9441  138.8062  163.3984 C.ar    1  UNL1        0.1633
      7 N         143.2709  138.6014  164.0674 N.ar    1  UNL1       -0.2251
      8 C         143.4870  139.0888  165.4694 C.ar    1  UNL1        0.1011
      9 C         142.3764  139.7809  166.2025 C.ar    1  UNL1        0.0267
     10 C         141.0495  139.9857  165.5335 C.ar    1  UNL1        0.0224
     11 C         140.8334  139.4983  164.1314 C.ar    1  UNL1        0.0986
     12 C         142.5925  140.2683  167.6046 C.ar    1  UNL1        0.0309
     13 C         142.5620  139.4260  168.8454 C.ar    1  UNL1        0.0070
     14 C         142.8277  140.3206  170.0197 C.ar    1  UNL1        0.0109
     15 C         143.0226  141.7159  169.5046 C.ar    1  UNL1        0.1009
     16 S         142.8772  141.6835  168.0120 S.2     1  UNL1       -0.0831
     17 C         143.3120  142.9303  170.3362 C.3     1  UNL1        0.4241
     18 F         143.6015  144.1447  171.1677 F       1  UNL1       -0.1654
     19 F         141.8428  143.2192  170.4255 F       1  UNL1       -0.1654
     20 F         144.7812  142.6413  170.2468 F       1  UNL1       -0.1654
     21 C         138.3114  140.1649  163.5484 C.3     1  UNL1        0.1956
     22 C         137.7372  144.0540  163.0059 C.3     1  UNL1        0.1150
     23 N         138.1450  142.7561  163.6375 N.am    1  UNL1       -0.2744
     24 C         138.7943  142.7514  164.9896 C.3     1  UNL1        0.1150
     25 C         137.9036  141.4628  162.9169 C.2     1  UNL1        0.2490
     26 O         137.2542  141.4677  161.5647 O.2     1  UNL1       -0.2728
@<TRIPOS>BOND
     1    22    23    1
     2    23    24    1
     3    23    25   am
     4    25    26    2
     5    25    21    1
     6    21     1    1
     7     1     2   ar
     8     2     3    2
     9     2     4   ar
    10     4     5    1
    11     4     6   ar
    12     6     7   ar
    13     7     8   ar
    14     8     9   ar
    15     9    12    1
    16    12    13   ar
    17    13    14   ar
    18    14    15   ar
    19    15    17    1
    20    17    18    1
    21    17    19    1
    22    17    20    1
    23    15    16   ar
    24     9    10   ar
    25    10    11   ar
    26    11     1   ar
    27    11     6   ar
    28    16    12   ar
@<TRIPOS>MOLECULE
*****
 26 28 0 0 0
SMALL
GASTEIGER

@<TRIPOS>ATOM
      1 N         139.1139  142.7131  163.1525 N.ar    1  UNL1       -0.2694
      2 C         138.4954  142.2175  161.8790 C.ar    1  UNL1        0.3331
      3 O         138.2815  143.0221  160.6312 O.2     1  UNL1       -0.2462
      4 N         138.1283  140.7760  162.0724 N.ar    1  UNL1       -0.2630
      5 C         137.4830  139.8860  161.0519 C.3     1  UNL1        0.1366
      6 C         138.5200  140.3807  163.4654 C.ar    1  UNL1        0.1633
      7 N         138.4007  139.0854  164.2121 N.ar    1  UNL1       -0.2251
      8 C         138.8904  138.9872  165.6265 C.ar    1  UNL1        0.1011
      9 C         139.4995  140.1845  166.2941 C.ar    1  UNL1        0.0267
     10 C         139.6189  141.4798  165.5473 C.ar    1  UNL1        0.0224
     11 C         139.1291  141.5780  164.1329 C.ar    1  UNL1        0.0986
     12 C         139.9893  140.0863  167.7085 C.ar    1  UNL1        0.0309
     13 C         139.1505  140.2284  168.9439 C.ar    1  UNL1        0.0070
     14 C         140.0466  140.0587  170.1347 C.ar    1  UNL1        0.0109
     15 C         141.4393  139.8116  169.6353 C.ar    1  UNL1        0.1009
     16 S         141.4039  139.8287  168.1358 S.2     1  UNL1       -0.0831
     17 C         142.6541  139.5870  170.4861 C.3     1  UNL1        0.4241
     18 F         143.8690  139.3623  171.3368 F       1  UNL1       -0.1654
     19 F         142.5468  140.9886  171.0095 F       1  UNL1       -0.1654
     20 F         142.7615  138.1854  169.9626 F       1  UNL1       -0.1654
     21 C         139.6271  144.1004  163.4018 C.3     1  UNL1        0.1956
     22 C         143.4941  144.7360  162.7760 C.3     1  UNL1        0.1150
     23 N         142.2188  144.2808  163.4213 N.am    1  UNL1       -0.2744
     24 C         142.2599  143.5509  164.7310 C.3     1  UNL1        0.1150
     25 C         140.9024  144.5555  162.7567 C.2     1  UNL1        0.2490
     26 O         140.8614  145.2855  161.4469 O.2     1  UNL1       -0.2728
@<TRIPOS>BOND
     1    22    23    1
     2    23    24    1
     3    23    25   am
     4    25    26    2
     5    25    21    1
     6    21     1    1
     7     1     2   ar
     8     2     3    2
     9     2     4   ar
    10     4     5    1
    11     4     6   ar
    12     6     7   ar
    13     7     8   ar
    14     8     9   ar
    15     9    12    1
    16    12    13   ar
    17    13    14   ar
    18    14    15   ar
    19    15    17    1
    20    17    18    1
    21    17    19    1
    22    17    20    1
    23    15    16   ar
    24     9    10   ar
    25    10    11   ar
    26    11     1   ar
    27    11     6   ar
    28    16    12   ar
@<TRIPOS>MOLECULE
*****
 26 28 0 0 0
SMALL
GASTEIGER

@<TRIPOS>ATOM
      1 N         142.3968  143.1945  160.2759 N.ar    1  UNL1       -0.2694
      2 C         142.0145  143.9393  159.0313 C.ar    1  UNL1        0.3331
      3 O         142.9631  144.5213  158.0256 O.2     1  UNL1       -0.2462
      4 N         140.5170  144.0000  158.9691 N.ar    1  UNL1       -0.2630
      5 C         139.7052  144.6532  157.8901 C.3     1  UNL1        0.1366
      6 C         139.9739  143.2926  160.1752 C.ar    1  UNL1        0.1633
      7 N         138.5715  143.0375  160.6423 N.ar    1  UNL1       -0.2251
      8 C         138.3310  142.2846  161.9171 C.ar    1  UNL1        0.1011
      9 C         139.4928  141.7868  162.7248 C.ar    1  UNL1        0.0267
     10 C         140.8951  142.0419  162.2577 C.ar    1  UNL1        0.0224
     11 C         141.1357  142.7948  160.9829 C.ar    1  UNL1        0.0986
     12 C         139.2521  141.0338  163.9997 C.ar    1  UNL1        0.0309
     13 C         139.5414  141.5307  165.3851 C.ar    1  UNL1        0.0070
     14 C         139.1481  140.4559  166.3546 C.ar    1  UNL1        0.0109
     15 C         138.6157  139.2947  165.5683 C.ar    1  UNL1        0.1009
     16 S         138.6800  139.6519  164.1129 S.2     1  UNL1       -0.0831
     17 C         138.1081  138.0030  166.1376 C.3     1  UNL1        0.4241
     18 F         137.6005  136.7113  166.7068 F       1  UNL1       -0.1654
     19 F         137.2750  138.7655  167.1248 F       1  UNL1       -0.1654
     20 F         138.9412  137.2405  165.1503 F       1  UNL1       -0.1654
     21 C         143.7949  142.9009  160.7333 C.3     1  UNL1        0.1956
     22 C         145.0744  142.5955  164.4776 C.3     1  UNL1        0.1150
     23 N         144.6435  142.2166  163.0916 N.am    1  UNL1       -0.2744
     24 C         144.6305  140.7749  162.6781 C.3     1  UNL1        0.1150
     25 C         144.2257  143.2796  162.1192 C.2     1  UNL1        0.2490
     26 O         144.2388  144.7215  162.5329 O.2     1  UNL1       -0.2728
@<TRIPOS>BOND
     1    22    23    1
     2    23    24    1
     3    23    25   am
     4    25    26    2
     5    25    21    1
     6    21     1    1
     7     1     2   ar
     8     2     3    2
     9     2     4   ar
    10     4     5    1
    11     4     6   ar
    12     6     7   ar
    13     7     8   ar
    14     8     9   ar
    15     9    12    1
    16    12    13   ar
    17    13    14   ar
    18    14    15   ar
    19    15    17    1
    20    17    18    1
    21    17    19    1
    22    17    20    1
    23    15    16   ar
    24     9    10   ar
    25    10    11   ar
    26    11     1   ar
    27    11     6   ar
    28    16    12   ar
@<TRIPOS>MOLECULE
*****
 26 28 0 0 0
SMALL
GASTEIGER

@<TRIPOS>ATOM
      1 N         142.3160  143.6345  162.4219 N.ar    1  UNL1       -0.2694
      2 C         141.6852  144.6047  161.4676 C.ar    1  UNL1        0.3331
      3 O         142.1685  144.9202  160.0830 O.2     1  UNL1       -0.2462
      4 N         140.4864  145.2042  162.1410 N.ar    1  UNL1       -0.2630
      5 C         139.5602  146.2243  161.5480 C.3     1  UNL1        0.1366
      6 C         140.3762  144.6044  163.5114 C.ar    1  UNL1        0.1633
      7 N         139.3923  144.8162  164.6236 N.ar    1  UNL1       -0.2251
      8 C         139.5392  144.0580  165.9094 C.ar    1  UNL1        0.1011
      9 C         140.6700  143.0878  166.0830 C.ar    1  UNL1        0.0267
     10 C         141.6539  142.8759  164.9708 C.ar    1  UNL1        0.0224
     11 C         141.5070  143.6342  163.6850 C.ar    1  UNL1        0.0986
     12 C         140.8169  142.3295  167.3690 C.ar    1  UNL1        0.0309
     13 C         140.3088  142.7641  168.7117 C.ar    1  UNL1        0.0070
     14 C         140.6755  141.7068  169.7105 C.ar    1  UNL1        0.0109
     15 C         141.4101  140.6186  168.9849 C.ar    1  UNL1        0.1009
     16 S         141.4975  141.0035  167.5378 S.2     1  UNL1       -0.0831
     17 C         141.9608  139.3656  169.5988 C.3     1  UNL1        0.4241
     18 F         142.5114  138.1126  170.2127 F       1  UNL1       -0.1654
     19 F         143.1120  139.4008  168.6379 F       1  UNL1       -0.1654
     20 F         140.8095  139.3305  170.5597 F       1  UNL1       -0.1654
     21 C         143.5407  142.8093  162.1592 C.3     1  UNL1        0.1956
     22 C         144.4626  139.1514  163.3919 C.3     1  UNL1        0.1150
     23 N         144.5081  140.6398  163.2115 N.am    1  UNL1       -0.2744
     24 C         145.5665  141.4470  163.9029 C.3     1  UNL1        0.1150
     25 C         143.4952  141.3209  162.3396 C.2     1  UNL1        0.2490
     26 O         142.4368  140.5135  161.6482 O.2     1  UNL1       -0.2728
@<TRIPOS>BOND
     1    22    23    1
     2    23    24    1
     3    23    25   am
     4    25    26    2
     5    25    21    1
     6    21     1    1
     7     1     2   ar
     8     2     3    2
     9     2     4   ar
    10     4     5    1
    11     4     6   ar
    12     6     7   ar
    13     7     8   ar
    14     8     9   ar
    15     9    12    1
    16    12    13   ar
    17    13    14   ar
    18    14    15   ar
    19    15    17    1
    20    17    18    1
    21    17    19    1
    22    17    20    1
    23    15    16   ar
    24     9    10   ar
    25    10    11   ar
    26    11     1   ar
    27    11     6   ar
    28    16    12   ar
@<TRIPOS>MOLECULE
*****
 26 28 0 0 0
SMALL
GASTEIGER

@<TRIPOS>ATOM
      1 N         144.1040  140.3997  162.0125 N.ar    1  UNL1       -0.2694
      2 C         144.0323  139.6284  160.7280 C.ar    1  UNL1        0.3331
      3 O         144.7604  139.9594  159.4590 O.2     1  UNL1       -0.2462
      4 N         143.1048  138.4679  160.9354 N.ar    1  UNL1       -0.2630
      5 C         142.7424  137.4347  159.9101 C.3     1  UNL1        0.1366
      6 C         142.6031  138.5220  162.3480 C.ar    1  UNL1        0.1633
      7 N         141.6639  137.6384  163.1141 N.ar    1  UNL1       -0.2251
      8 C         141.3421  137.9488  164.5459 C.ar    1  UNL1        0.1011
      9 C         141.9597  139.1427  165.2116 C.ar    1  UNL1        0.0267
     10 C         142.8989  140.0263  164.4455 C.ar    1  UNL1        0.0224
     11 C         143.2207  139.7160  163.0137 C.ar    1  UNL1        0.0986
     12 C         141.6379  139.4530  166.6435 C.ar    1  UNL1        0.0309
     13 C         142.5945  139.3849  167.7969 C.ar    1  UNL1        0.0070
     14 C         141.8509  139.7757  169.0396 C.ar    1  UNL1        0.0109
     15 C         140.4346  140.0852  168.6542 C.ar    1  UNL1        0.1009
     16 S         140.3030  139.8857  167.1734 S.2     1  UNL1       -0.0831
     17 C         139.3419  140.5182  169.5861 C.3     1  UNL1        0.4241
     18 F         138.2491  140.9511  170.5181 F       1  UNL1       -0.1654
     19 F         138.3525  139.7075  168.8026 F       1  UNL1       -0.1654
     20 F         140.3313  141.3288  170.3697 F       1  UNL1       -0.1654
     21 C         144.9163  141.6375  162.2536 C.3     1  UNL1        0.1956
     22 C         143.4400  145.0698  163.5913 C.3     1  UNL1        0.1150
     23 N         144.1079  143.7268  163.5692 N.am    1  UNL1       -0.2744
     24 C         144.6351  143.1304  164.8405 C.3     1  UNL1        0.1150
     25 C         144.2485  142.9803  162.2758 C.2     1  UNL1        0.2490
     26 O         143.7211  143.5769  161.0044 O.2     1  UNL1       -0.2728
@<TRIPOS>BOND
     1    22    23    1
     2    23    24    1
     3    23    25   am
     4    25    26    2
     5    25    21    1
     6    21     1    1
     7     1     2   ar
     8     2     3    2
     9     2     4   ar
    10     4     5    1
    11     4     6   ar
    12     6     7   ar
    13     7     8   ar
    14     8     9   ar
    15     9    12    1
    16    12    13   ar
    17    13    14   ar
    18    14    15   ar
    19    15    17    1
    20    17    18    1
    21    17    19    1
    22    17    20    1
    23    15    16   ar
    24     9    10   ar
    25    10    11   ar
    26    11     1   ar
    27    11     6   ar
    28    16    12   ar
@<TRIPOS>MOLECULE
*****
 26 28 0 0 0
SMALL
GASTEIGER

@<TRIPOS>ATOM
      1 N         143.2583  142.7741  161.9065 N.ar    1  UNL1       -0.2694
      2 C         142.6399  143.6015  160.8189 C.ar    1  UNL1        0.3331
      3 O         143.1584  143.7472  159.4189 O.2     1  UNL1       -0.2462
      4 N         141.4119  144.2576  161.3771 N.ar    1  UNL1       -0.2630
      5 C         140.4868  145.1747  160.6333 C.3     1  UNL1        0.1366
      6 C         141.2714  143.8357  162.8097 C.ar    1  UNL1        0.1633
      7 N         140.2518  144.1680  163.8584 N.ar    1  UNL1       -0.2251
      8 C         140.3733  143.5834  165.2344 C.ar    1  UNL1        0.1011
      9 C         141.5144  142.6665  165.5616 C.ar    1  UNL1        0.0267
     10 C         142.5340  142.3342  164.5129 C.ar    1  UNL1        0.0224
     11 C         142.4125  142.9188  163.1369 C.ar    1  UNL1        0.0986
     12 C         141.6359  142.0819  166.9377 C.ar    1  UNL1        0.0309
     13 C         142.8709  142.0804  167.7891 C.ar    1  UNL1        0.0070
     14 C         142.5421  141.3937  169.0816 C.ar    1  UNL1        0.0109
     15 C         141.1038  140.9708  169.0289 C.ar    1  UNL1        0.1009
     16 S         140.5439  141.3961  167.7039 S.2     1  UNL1       -0.0831
     17 C         140.3568  140.2492  170.1111 C.3     1  UNL1        0.4241
     18 F         139.6097  139.5277  171.1934 F       1  UNL1       -0.1654
     19 F         139.2561  141.2650  170.0286 F       1  UNL1       -0.1654
     20 F         141.4575  139.2335  170.1937 F       1  UNL1       -0.1654
     21 C         144.5038  141.9470  161.7852 C.3     1  UNL1        0.1956
     22 C         143.9905  138.0492  161.2439 C.3     1  UNL1        0.1150
     23 N         144.0397  139.5235  160.9721 N.am    1  UNL1       -0.2744
     24 C         143.6739  140.0486  159.6155 C.3     1  UNL1        0.1150
     25 C         144.4546  140.4728  162.0569 C.2     1  UNL1        0.2490
     26 O         144.8204  139.9475  163.4136 O.2     1  UNL1       -0.2728
@<TRIPOS>BOND
     1    22    23    1
     2    23    24    1
     3    23    25   am
     4    25    26    2
     5    25    21    1
     6    21     1    1
     7     1     2   ar
     8     2     3    2
     9     2     4   ar
    10     4     5    1
    11     4     6   ar
    12     6     7   ar
    13     7     8   ar
    14     8     9   ar
    15     9    12    1
    16    12    13   ar
    17    13    14   ar
    18    14    15   ar
    19    15    17    1
    20    17    18    1
    21    17    19    1
    22    17    20    1
    23    15    16   ar
    24     9    10   ar
    25    10    11   ar
    26    11     1   ar
    27    11     6   ar
    28    16    12   ar
@<TRIPOS>MOLECULE
*****
 26 28 0 0 0
SMALL
GASTEIGER

@<TRIPOS>ATOM
      1 N         141.7221  143.3530  161.9001 N.ar    1  UNL1       -0.2694
      2 C         141.3199  144.5494  161.0897 C.ar    1  UNL1        0.3331
      3 O         141.8468  144.9130  159.7331 O.2     1  UNL1       -0.2462
      4 N         140.2983  145.3183  161.8740 N.ar    1  UNL1       -0.2630
      5 C         139.6242  146.5859  161.4394 C.3     1  UNL1        0.1366
      6 C         140.0692  144.5971  163.1691 C.ar    1  UNL1        0.1633
      7 N         139.1729  144.8896  164.3358 N.ar    1  UNL1       -0.2251
      8 C         139.1567  143.9673  165.5187 C.ar    1  UNL1        0.1011
      9 C         140.0366  142.7527  165.5348 C.ar    1  UNL1        0.0267
     10 C         140.9329  142.4602  164.3681 C.ar    1  UNL1        0.0224
     11 C         140.9491  143.3825  163.1853 C.ar    1  UNL1        0.0986
     12 C         140.0203  141.8304  166.7178 C.ar    1  UNL1        0.0309
     13 C         139.4952  140.4254  166.7332 C.ar    1  UNL1        0.0070
     14 C         139.6765  139.8779  168.1178 C.ar    1  UNL1        0.0109
     15 C         140.3138  140.9446  168.9582 C.ar    1  UNL1        0.1009
     16 S         140.5263  142.1512  168.0929 S.2     1  UNL1       -0.0831
     17 C         140.6752  140.8254  170.4092 C.3     1  UNL1        0.4241
     18 F         141.0366  140.7062  171.8601 F       1  UNL1       -0.1654
     19 F         140.8852  139.3503  170.2357 F       1  UNL1       -0.1654
     20 F         140.4652  142.3005  170.5826 F       1  UNL1       -0.1654
     21 C         142.7218  142.3101  161.4963 C.3     1  UNL1        0.1956
     22 C         145.1164  140.3000  163.9407 C.3     1  UNL1        0.1150
     23 N         143.9661  140.6268  163.0352 N.am    1  UNL1       -0.2744
     24 C         142.9099  139.5971  162.7629 C.3     1  UNL1        0.1150
     25 C         143.8720  141.9833  162.4019 C.2     1  UNL1        0.2490
     26 O         144.9283  143.0130  162.6742 O.2     1  UNL1       -0.2728
@<TRIPOS>BOND
     1    22    23    1
     2    23    24    1
     3    23    25   am
     4    25    26    2
     5    25    21    1
     6    21     1    1
     7     1     2   ar
     8     2     3    2
     9     2     4   ar
    10     4     5    1
    11     4     6   ar
    12     6     7   ar
    13     7     8   ar
    14     8     9   ar
    15     9    12    1
    16    12    13   ar
    17    13    14   ar
    18    14    15   ar
    19    15    17    1
    20    17    18    1
    21    17    19    1
    22    17    20    1
    23    15    16   ar
    24     9    10   ar
    25    10    11   ar
    26    11     1   ar
    27    11     6   ar
    28    16    12   ar
