@<TRIPOS>MOLECULE
*****
 33 36 0 0 0
SMALL
GASTEIGER

@<TRIPOS>ATOM
      1 C         141.1624  140.5920  168.4043 C.ar    1  UNL1        0.0685
      2 C         140.8369  140.4973  169.8655 C.ar    1  UNL1        0.0885
      3 C         139.4880  140.0087  170.3032 C.ar    1  UNL1        0.1263
      4 N         138.4645  139.6148  169.2798 N.ar    1  UNL1       -0.1633
      5 N         138.7900  139.7095  167.8186 N.ar    1  UNL1       -0.2270
      6 C         137.9899  139.3943  166.5896 C.ar    1  UNL1        0.1004
      7 C         138.8444  139.6880  165.3923 C.ar    1  UNL1        0.0208
      8 C         140.1726  140.1848  165.8813 C.ar    1  UNL1        0.0219
      9 C         140.1390  140.1981  167.3809 C.ar    1  UNL1        0.0961
     10 C         138.4414  139.5153  163.9578 C.ar    1  UNL1        0.0046
     11 C         137.8816  140.6766  163.1910 C.ar    1  UNL1        0.0207
     12 C         137.4786  140.5038  161.7564 C.ar    1  UNL1        0.0989
     13 N         137.6355  139.1698  161.0887 N.ar    1  UNL1       -0.2423
     14 C         138.1954  138.0085  161.8556 C.ar    1  UNL1        0.0989
     15 C         138.5983  138.1813  163.2901 C.ar    1  UNL1        0.0207
     16 C         141.8604  140.8912  170.8889 C.2     1  UNL1        0.2456
     17 N         143.0254  139.9891  171.1702 N.am    1  UNL1       -0.3252
     18 O         141.7190  142.1870  171.6308 O.2     1  UNL1       -0.2703
     19 H         143.1181  139.1385  170.6832 H       1  UNL1        0.1453
     20 H         143.6971  140.2476  171.8419 H       1  UNL1        0.1453
     21 N         142.5114  141.0806  167.9665 N.pl3   1  UNL1       -0.3327
     22 H         142.9624  141.7969  168.4692 H       1  UNL1        0.1468
     23 C         143.2470  142.4390  166.3414 C.3     1  UNL1        0.0029
     24 C         143.7215  141.2320  165.5879 C.3     1  UNL1        0.0282
     25 C         144.1707  142.2385  164.5705 C.3     1  UNL1        0.0029
     26 C         143.1731  140.4778  166.7628 C.3     1  UNL1        0.0702
     27 C         143.4025  139.0150  166.5227 C.3     1  UNL1        0.0208
     28 C         144.0927  138.8652  165.1994 C.3     1  UNL1        0.0160
     29 C         144.2898  140.2353  164.6217 C.3     1  UNL1        0.0404
     30 C         144.6202  141.4502  163.8063 C.3     1  UNL1        0.0156
     31 N         144.9273  139.4926  163.4850 N.3     1  UNL1       -0.3231
     32 H         144.9017  138.4911  163.6764 H       1  UNL1        0.1188
     33 H         145.8962  139.7946  163.3824 H       1  UNL1        0.1188
@<TRIPOS>BOND
     1    23    24    1
     2    24    25    1
     3    24    26    1
     4    26    21    1
     5    21     1    1
     6     1     2   ar
     7     2    16    1
     8    16    17   am
     9    16    18    2
    10     2     3   ar
    11     3     4   ar
    12     4     5   ar
    13     5     6   ar
    14     6     7   ar
    15     7    10    1
    16    10    11   ar
    17    11    12   ar
    18    12    13   ar
    19    13    14   ar
    20    14    15   ar
    21     7     8   ar
    22     8     9   ar
    23    26    27    1
    24    27    28    1
    25    28    29    1
    26    29    30    1
    27    29    31    1
    28    29    24    1
    29     9     1   ar
    30     9     5   ar
    31    15    10   ar
    32    21    22    1
    33    17    19    1
    34    17    20    1
    35    31    32    1
    36    31    33    1
@<TRIPOS>MOLECULE
*****
 33 36 0 0 0
SMALL
GASTEIGER

@<TRIPOS>ATOM
      1 C         141.1555  140.5536  167.5160 C.ar    1  UNL1        0.0685
      2 C         141.3925  140.1151  168.9308 C.ar    1  UNL1        0.0885
      3 C         142.4759  139.1242  169.2373 C.ar    1  UNL1        0.1263
      4 N         143.3225  138.5716  168.1291 N.ar    1  UNL1       -0.1633
      5 N         143.0855  139.0101  166.7144 N.ar    1  UNL1       -0.2270
      6 C         143.7551  138.6412  165.4238 C.ar    1  UNL1        0.1004
      7 C         143.0854  139.4043  164.3196 C.ar    1  UNL1        0.0208
      8 C         142.0019  140.2447  164.9277 C.ar    1  UNL1        0.0219
      9 C         142.0020  140.0011  166.4078 C.ar    1  UNL1        0.0961
     10 C         143.4373  139.3384  162.8629 C.ar    1  UNL1        0.0046
     11 C         143.3601  138.0314  162.1310 C.ar    1  UNL1        0.0207
     12 C         143.7120  137.9657  160.6743 C.ar    1  UNL1        0.0989
     13 N         144.1412  139.2069  159.9496 N.ar    1  UNL1       -0.2423
     14 C         144.2184  140.5139  160.6815 C.ar    1  UNL1        0.0989
     15 C         143.8664  140.5796  162.1382 C.ar    1  UNL1        0.0207
     16 C         140.5459  140.6677  170.0390 C.2     1  UNL1        0.2456
     17 N         139.9659  139.7461  171.0706 N.am    1  UNL1       -0.3252
     18 O         140.2794  142.1418  170.1155 O.2     1  UNL1       -0.2703
     19 H         140.1409  138.7785  171.0203 H       1  UNL1        0.1453
     20 H         139.4103  140.1087  171.7979 H       1  UNL1        0.1453
     21 N         140.0720  141.5446  167.2095 N.pl3   1  UNL1       -0.3327
     22 H         139.9548  142.3382  167.7803 H       1  UNL1        0.1468
     23 C         139.5947  143.2814  165.8741 C.3     1  UNL1        0.0029
     24 C         138.7439  142.3691  165.0412 C.3     1  UNL1        0.0282
     25 C         138.4986  143.6024  164.2234 C.3     1  UNL1        0.0029
     26 C         139.1671  141.3266  166.0331 C.3     1  UNL1        0.0702
     27 C         138.5265  140.0278  165.6423 C.3     1  UNL1        0.0208
     28 C         137.7074  140.2676  164.4088 C.3     1  UNL1        0.0160
     29 C         137.8418  141.7147  164.0373 C.3     1  UNL1        0.0404
     30 C         137.7850  143.0847  163.4294 C.3     1  UNL1        0.0156
     31 N         136.9278  141.3466  162.9063 N.3     1  UNL1       -0.3231
     32 H         136.6956  140.3551  162.9657 H       1  UNL1        0.1188
     33 H         137.3931  141.5342  162.0183 H       1  UNL1        0.1188
@<TRIPOS>BOND
     1    23    24    1
     2    24    25    1
     3    24    26    1
     4    26    21    1
     5    21     1    1
     6     1     2   ar
     7     2    16    1
     8    16    17   am
     9    16    18    2
    10     2     3   ar
    11     3     4   ar
    12     4     5   ar
    13     5     6   ar
    14     6     7   ar
    15     7    10    1
    16    10    11   ar
    17    11    12   ar
    18    12    13   ar
    19    13    14   ar
    20    14    15   ar
    21     7     8   ar
    22     8     9   ar
    23    26    27    1
    24    27    28    1
    25    28    29    1
    26    29    30    1
    27    29    31    1
    28    29    24    1
    29     9     1   ar
    30     9     5   ar
    31    15    10   ar
    32    21    22    1
    33    17    19    1
    34    17    20    1
    35    31    32    1
    36    31    33    1
@<TRIPOS>MOLECULE
*****
 33 36 0 0 0
SMALL
GASTEIGER

@<TRIPOS>ATOM
      1 C         140.7042  140.0826  167.3575 C.ar    1  UNL1        0.0685
      2 C         141.0817  139.9015  168.7979 C.ar    1  UNL1        0.0885
      3 C         142.3901  139.2614  169.1556 C.ar    1  UNL1        0.1263
      4 N         143.3213  138.8023  168.0728 N.ar    1  UNL1       -0.1633
      5 N         142.9439  138.9834  166.6325 N.ar    1  UNL1       -0.2270
      6 C         143.6523  138.6329  165.3576 C.ar    1  UNL1        0.1004
      7 C         142.7816  139.0565  164.2120 C.ar    1  UNL1        0.0208
      8 C         141.5351  139.6688  164.7788 C.ar    1  UNL1        0.0219
      9 C         141.6354  139.6236  166.2748 C.ar    1  UNL1        0.0961
     10 C         143.1013  138.8961  162.7553 C.ar    1  UNL1        0.0046
     11 C         142.4706  137.7868  161.9668 C.ar    1  UNL1        0.0207
     12 C         142.7904  137.6264  160.5100 C.ar    1  UNL1        0.0989
     13 N         143.7407  138.5752  159.8418 N.ar    1  UNL1       -0.2423
     14 C         144.3714  139.6845  160.6303 C.ar    1  UNL1        0.0989
     15 C         144.0516  139.8449  162.0870 C.ar    1  UNL1        0.0207
     16 C         140.1504  140.3606  169.8806 C.2     1  UNL1        0.2456
     17 N         139.8554  139.4637  171.0462 N.am    1  UNL1       -0.3252
     18 O         139.5143  141.7164  169.7977 O.2     1  UNL1       -0.2703
     19 H         140.2730  138.5738  171.1005 H       1  UNL1        0.1453
     20 H         139.2443  139.7650  171.7568 H       1  UNL1        0.1453
     21 N         139.3957  140.7228  166.9998 N.pl3   1  UNL1       -0.3327
     22 H         138.5571  140.3750  167.3807 H       1  UNL1        0.1468
     23 C         138.0625  140.6323  165.1993 C.3     1  UNL1        0.0029
     24 C         138.5365  142.0029  164.8161 C.3     1  UNL1        0.0282
     25 C         137.6090  141.8261  163.6505 C.3     1  UNL1        0.0029
     26 C         139.3648  141.8930  166.0618 C.3     1  UNL1        0.0702
     27 C         140.1569  143.1588  166.2048 C.3     1  UNL1        0.0208
     28 C         139.8181  144.0508  165.0475 C.3     1  UNL1        0.0160
     29 C         138.8166  143.3364  164.1893 C.3     1  UNL1        0.0404
     30 C         137.8306  142.8809  163.1547 C.3     1  UNL1        0.0156
     31 N         138.8906  144.5748  163.3461 N.3     1  UNL1       -0.3231
     32 H         139.5480  145.2326  163.7651 H       1  UNL1        0.1188
     33 H         137.9673  145.0049  163.2919 H       1  UNL1        0.1188
@<TRIPOS>BOND
     1    23    24    1
     2    24    25    1
     3    24    26    1
     4    26    21    1
     5    21     1    1
     6     1     2   ar
     7     2    16    1
     8    16    17   am
     9    16    18    2
    10     2     3   ar
    11     3     4   ar
    12     4     5   ar
    13     5     6   ar
    14     6     7   ar
    15     7    10    1
    16    10    11   ar
    17    11    12   ar
    18    12    13   ar
    19    13    14   ar
    20    14    15   ar
    21     7     8   ar
    22     8     9   ar
    23    26    27    1
    24    27    28    1
    25    28    29    1
    26    29    30    1
    27    29    31    1
    28    29    24    1
    29     9     1   ar
    30     9     5   ar
    31    15    10   ar
    32    21    22    1
    33    17    19    1
    34    17    20    1
    35    31    32    1
    36    31    33    1
@<TRIPOS>MOLECULE
*****
 33 36 0 0 0
SMALL
GASTEIGER

@<TRIPOS>ATOM
      1 C         142.1392  140.8210  167.1897 C.ar    1  UNL1        0.0685
      2 C         141.9499  140.8043  168.6776 C.ar    1  UNL1        0.0885
      3 C         141.0404  141.8032  169.3291 C.ar    1  UNL1        0.1263
      4 N         140.3199  142.8190  168.4928 N.ar    1  UNL1       -0.1633
      5 N         140.5092  142.8356  167.0049 N.ar    1  UNL1       -0.2270
      6 C         139.9365  143.7112  165.9300 C.ar    1  UNL1        0.1004
      7 C         140.4921  143.2533  164.6142 C.ar    1  UNL1        0.0208
      8 C         141.4083  142.0948  164.8757 C.ar    1  UNL1        0.0219
      9 C         141.4189  141.8366  166.3533 C.ar    1  UNL1        0.0961
     10 C         140.1855  143.8494  163.2722 C.ar    1  UNL1        0.0046
     11 C         140.1896  145.3388  163.0945 C.ar    1  UNL1        0.0207
     12 C         139.8830  145.9347  161.7525 C.ar    1  UNL1        0.0989
     13 N         139.5722  145.0413  160.5883 N.ar    1  UNL1       -0.2423
     14 C         139.5681  143.5519  160.7661 C.ar    1  UNL1        0.0989
     15 C         139.8748  142.9560  162.1081 C.ar    1  UNL1        0.0207
     16 C         142.6704  139.7886  169.5139 C.2     1  UNL1        0.2456
     17 N         142.9656  140.0777  170.9558 N.am    1  UNL1       -0.3252
     18 O         143.0956  138.4839  168.9083 O.2     1  UNL1       -0.2703
     19 H         142.6865  140.9340  171.3533 H       1  UNL1        0.1453
     20 H         143.4384  139.4111  171.5048 H       1  UNL1        0.1453
     21 N         143.0489  139.8220  166.5381 N.pl3   1  UNL1       -0.3327
     22 H         143.9625  139.6912  166.8808 H       1  UNL1        0.1468
     23 C         144.2737  139.8090  164.6600 C.3     1  UNL1        0.0029
     24 C         143.2551  138.9008  164.0372 C.3     1  UNL1        0.0282
     25 C         144.1567  138.9693  162.8404 C.3     1  UNL1        0.0029
     26 C         142.5665  139.0221  165.3643 C.3     1  UNL1        0.0702
     27 C         141.3109  138.2033  165.3115 C.3     1  UNL1        0.0208
     28 C         141.2235  137.5759  163.9519 C.3     1  UNL1        0.0160
     29 C         142.4251  138.0070  163.1644 C.3     1  UNL1        0.0404
     30 C         143.5002  138.2624  162.1500 C.3     1  UNL1        0.0156
     31 N         141.8198  137.1665  162.0794 N.3     1  UNL1       -0.3231
     32 H         140.9487  136.7548  162.4142 H       1  UNL1        0.1188
     33 H         142.4699  136.4240  161.8218 H       1  UNL1        0.1188
@<TRIPOS>BOND
     1    23    24    1
     2    24    25    1
     3    24    26    1
     4    26    21    1
     5    21     1    1
     6     1     2   ar
     7     2    16    1
     8    16    17   am
     9    16    18    2
    10     2     3   ar
    11     3     4   ar
    12     4     5   ar
    13     5     6   ar
    14     6     7   ar
    15     7    10    1
    16    10    11   ar
    17    11    12   ar
    18    12    13   ar
    19    13    14   ar
    20    14    15   ar
    21     7     8   ar
    22     8     9   ar
    23    26    27    1
    24    27    28    1
    25    28    29    1
    26    29    30    1
    27    29    31    1
    28    29    24    1
    29     9     1   ar
    30     9     5   ar
    31    15    10   ar
    32    21    22    1
    33    17    19    1
    34    17    20    1
    35    31    32    1
    36    31    33    1
@<TRIPOS>MOLECULE
*****
 33 36 0 0 0
SMALL
GASTEIGER

@<TRIPOS>ATOM
      1 C         141.0170  139.2755  163.8652 C.ar    1  UNL1        0.0685
      2 C         140.2469  138.3769  162.9436 C.ar    1  UNL1        0.0885
      3 C         138.9823  137.7236  163.4166 C.ar    1  UNL1        0.1263
      4 N         138.4876  137.9689  164.8113 N.ar    1  UNL1       -0.1633
      5 N         139.2577  138.8676  165.7330 N.ar    1  UNL1       -0.2270
      6 C         139.0181  139.2938  167.1510 C.ar    1  UNL1        0.1004
      7 C         140.1348  140.2105  167.5544 C.ar    1  UNL1        0.0208
      8 C         141.0645  140.3508  166.3857 C.ar    1  UNL1        0.0219
      9 C         140.5224  139.5208  165.2599 C.ar    1  UNL1        0.0961
     10 C         140.2938  140.8710  168.8918 C.ar    1  UNL1        0.0046
     11 C         140.0852  142.3502  169.0273 C.ar    1  UNL1        0.0207
     12 C         140.2443  143.0106  170.3647 C.ar    1  UNL1        0.0989
     13 N         140.6120  142.1918  171.5665 N.ar    1  UNL1       -0.2423
     14 C         140.8206  140.7126  171.4310 C.ar    1  UNL1        0.0989
     15 C         140.6615  140.0522  170.0936 C.ar    1  UNL1        0.0207
     16 C         140.7416  138.1316  161.5489 C.2     1  UNL1        0.2456
     17 N         139.8296  138.3564  160.3793 N.am    1  UNL1       -0.3252
     18 O         142.1480  137.6616  161.3237 O.2     1  UNL1       -0.2703
     19 H         138.9065  138.6649  160.5271 H       1  UNL1        0.1453
     20 H         140.1542  138.1954  159.4639 H       1  UNL1        0.1453
     21 N         142.2817  139.9288  163.3922 N.pl3   1  UNL1       -0.3327
     22 H         143.1275  139.4249  163.3967 H       1  UNL1        0.1468
     23 C         143.9033  141.3252  164.0617 C.3     1  UNL1        0.0029
     24 C         143.2565  142.4142  163.2581 C.3     1  UNL1        0.0282
     25 C         144.3905  143.2508  163.7719 C.3     1  UNL1        0.0029
     26 C         142.2577  141.3498  162.9123 C.3     1  UNL1        0.0702
     27 C         141.2307  141.9559  162.0024 C.3     1  UNL1        0.0208
     28 C         141.5948  143.3948  161.7859 C.3     1  UNL1        0.0160
     29 C         142.8468  143.6780  162.5619 C.3     1  UNL1        0.0404
     30 C         144.0665  144.2505  163.2213 C.3     1  UNL1        0.0156
     31 N         142.6921  145.0616  162.0036 N.3     1  UNL1       -0.3231
     32 H         141.8604  145.0994  161.4144 H       1  UNL1        0.1188
     33 H         143.5139  145.2976  161.4473 H       1  UNL1        0.1188
@<TRIPOS>BOND
     1    23    24    1
     2    24    25    1
     3    24    26    1
     4    26    21    1
     5    21     1    1
     6     1     2   ar
     7     2    16    1
     8    16    17   am
     9    16    18    2
    10     2     3   ar
    11     3     4   ar
    12     4     5   ar
    13     5     6   ar
    14     6     7   ar
    15     7    10    1
    16    10    11   ar
    17    11    12   ar
    18    12    13   ar
    19    13    14   ar
    20    14    15   ar
    21     7     8   ar
    22     8     9   ar
    23    26    27    1
    24    27    28    1
    25    28    29    1
    26    29    30    1
    27    29    31    1
    28    29    24    1
    29     9     1   ar
    30     9     5   ar
    31    15    10   ar
    32    21    22    1
    33    17    19    1
    34    17    20    1
    35    31    32    1
    36    31    33    1
@<TRIPOS>MOLECULE
*****
 33 36 0 0 0
SMALL
GASTEIGER

@<TRIPOS>ATOM
      1 C         139.7497  139.5766  163.8701 C.ar    1  UNL1        0.0685
      2 C         140.0581  138.3067  163.1337 C.ar    1  UNL1        0.0885
      3 C         141.1058  137.3707  163.6589 C.ar    1  UNL1        0.1263
      4 N         141.8452  137.7044  164.9207 N.ar    1  UNL1       -0.1633
      5 N         141.5369  138.9742  165.6571 N.ar    1  UNL1       -0.2270
      6 C         142.0973  139.5654  166.9166 C.ar    1  UNL1        0.1004
      7 C         141.3959  140.8670  167.1697 C.ar    1  UNL1        0.0208
      8 C         140.4020  141.0801  166.0667 C.ar    1  UNL1        0.0219
      9 C         140.4891  139.9103  165.1318 C.ar    1  UNL1        0.0961
     10 C         141.6448  141.7928  168.3233 C.ar    1  UNL1        0.0046
     11 C         140.5686  142.7355  168.7741 C.ar    1  UNL1        0.0207
     12 C         140.8175  143.6613  169.9278 C.ar    1  UNL1        0.0989
     13 N         142.1425  143.6445  170.6306 N.ar    1  UNL1       -0.2423
     14 C         143.2187  142.7018  170.1799 C.ar    1  UNL1        0.0989
     15 C         142.9698  141.7760  169.0262 C.ar    1  UNL1        0.0207
     16 C         139.3187  137.9730  161.8719 C.2     1  UNL1        0.2456
     17 N         137.9201  137.4354  161.9421 N.am    1  UNL1       -0.3252
     18 O         139.9777  138.1770  160.5401 O.2     1  UNL1       -0.2703
     19 H         137.4876  137.3015  162.8163 H       1  UNL1        0.1453
     20 H         137.4348  137.2163  161.1141 H       1  UNL1        0.1453
     21 N         138.7020  140.5127  163.3448 N.pl3   1  UNL1       -0.3327
     22 H         137.7486  140.3187  163.4950 H       1  UNL1        0.1468
     23 C         137.8065  142.4835  163.9292 C.3     1  UNL1        0.0029
     24 C         138.6109  143.1371  162.8448 C.3     1  UNL1        0.0282
     25 C         137.9466  144.3929  163.3259 C.3     1  UNL1        0.0029
     26 C         139.1070  141.7445  162.5905 C.3     1  UNL1        0.0702
     27 C         140.0791  141.7999  161.4495 C.3     1  UNL1        0.0208
     28 C         140.1838  143.2267  160.9987 C.3     1  UNL1        0.0160
     29 C         139.2764  144.0531  161.8611 C.3     1  UNL1        0.0404
     30 C         138.4730  145.1175  162.5478 C.3     1  UNL1        0.0156
     31 N         139.7739  145.1917  161.0208 N.3     1  UNL1       -0.3231
     32 H         140.4381  144.8403  160.3310 H       1  UNL1        0.1188
     33 H         140.2349  145.8786  161.6176 H       1  UNL1        0.1188
@<TRIPOS>BOND
     1    23    24    1
     2    24    25    1
     3    24    26    1
     4    26    21    1
     5    21     1    1
     6     1     2   ar
     7     2    16    1
     8    16    17   am
     9    16    18    2
    10     2     3   ar
    11     3     4   ar
    12     4     5   ar
    13     5     6   ar
    14     6     7   ar
    15     7    10    1
    16    10    11   ar
    17    11    12   ar
    18    12    13   ar
    19    13    14   ar
    20    14    15   ar
    21     7     8   ar
    22     8     9   ar
    23    26    27    1
    24    27    28    1
    25    28    29    1
    26    29    30    1
    27    29    31    1
    28    29    24    1
    29     9     1   ar
    30     9     5   ar
    31    15    10   ar
    32    21    22    1
    33    17    19    1
    34    17    20    1
    35    31    32    1
    36    31    33    1
@<TRIPOS>MOLECULE
*****
 33 36 0 0 0
SMALL
GASTEIGER

@<TRIPOS>ATOM
      1 C         140.4063  140.2799  165.9055 C.ar    1  UNL1        0.0685
      2 C         139.5582  139.9305  167.0924 C.ar    1  UNL1        0.0885
      3 C         138.5035  138.8706  166.9745 C.ar    1  UNL1        0.1263
      4 N         138.2968  138.1599  165.6697 N.ar    1  UNL1       -0.1633
      5 N         139.1449  138.5093  164.4829 N.ar    1  UNL1       -0.2270
      6 C         139.1711  137.9834  163.0784 C.ar    1  UNL1        0.1004
      7 C         140.2421  138.7184  162.3282 C.ar    1  UNL1        0.0208
      8 C         140.8778  139.6985  163.2691 C.ar    1  UNL1        0.0219
      9 C         140.1997  139.5693  164.6008 C.ar    1  UNL1        0.0961
     10 C         140.6125  138.5098  160.8897 C.ar    1  UNL1        0.0046
     11 C         139.5587  138.5876  159.8250 C.ar    1  UNL1        0.0207
     12 C         139.9292  138.3791  158.3865 C.ar    1  UNL1        0.0989
     13 N         141.3533  138.0927  158.0126 N.ar    1  UNL1       -0.2423
     14 C         142.4071  138.0150  159.0773 C.ar    1  UNL1        0.0989
     15 C         142.0366  138.2235  160.5158 C.ar    1  UNL1        0.0207
     16 C         139.7649  140.6412  168.3971 C.2     1  UNL1        0.2456
     17 N         139.5652  139.9079  169.6903 N.am    1  UNL1       -0.3252
     18 O         140.1713  142.0849  168.4086 O.2     1  UNL1       -0.2703
     19 H         139.2984  138.9603  169.6827 H       1  UNL1        0.1453
     20 H         139.7008  140.3743  170.5467 H       1  UNL1        0.1453
     21 N         141.4611  141.3399  166.0234 N.pl3   1  UNL1       -0.3327
     22 H         142.2550  141.1841  166.5843 H       1  UNL1        0.1468
     23 C         143.2946  142.3664  165.2411 C.3     1  UNL1        0.0029
     24 C         142.4174  143.4556  164.6987 C.3     1  UNL1        0.0282
     25 C         143.7121  144.0460  164.2242 C.3     1  UNL1        0.0029
     26 C         141.3062  142.6374  165.2866 C.3     1  UNL1        0.0702
     27 C         140.0128  143.3443  165.0085 C.3     1  UNL1        0.0208
     28 C         140.3247  144.5994  164.2487 C.3     1  UNL1        0.0160
     29 C         141.8108  144.6682  164.0572 C.3     1  UNL1        0.0404
     30 C         143.2323  145.0052  163.7168 C.3     1  UNL1        0.0156
     31 N         141.5014  145.9513  163.3445 N.3     1  UNL1       -0.3231
     32 H         140.4941  146.1113  163.3544 H       1  UNL1        0.1188
     33 H         141.8267  145.8912  162.3797 H       1  UNL1        0.1188
@<TRIPOS>BOND
     1    23    24    1
     2    24    25    1
     3    24    26    1
     4    26    21    1
     5    21     1    1
     6     1     2   ar
     7     2    16    1
     8    16    17   am
     9    16    18    2
    10     2     3   ar
    11     3     4   ar
    12     4     5   ar
    13     5     6   ar
    14     6     7   ar
    15     7    10    1
    16    10    11   ar
    17    11    12   ar
    18    12    13   ar
    19    13    14   ar
    20    14    15   ar
    21     7     8   ar
    22     8     9   ar
    23    26    27    1
    24    27    28    1
    25    28    29    1
    26    29    30    1
    27    29    31    1
    28    29    24    1
    29     9     1   ar
    30     9     5   ar
    31    15    10   ar
    32    21    22    1
    33    17    19    1
    34    17    20    1
    35    31    32    1
    36    31    33    1
@<TRIPOS>MOLECULE
*****
 33 36 0 0 0
SMALL
GASTEIGER

@<TRIPOS>ATOM
      1 C         143.1656  141.4488  163.9261 C.ar    1  UNL1        0.0685
      2 C         143.8835  140.4461  163.0723 C.ar    1  UNL1        0.0885
      3 C         144.2949  139.1252  163.6519 C.ar    1  UNL1        0.1263
      4 N         143.9883  138.8070  165.0854 N.ar    1  UNL1       -0.1633
      5 N         143.2704  139.8098  165.9392 N.ar    1  UNL1       -0.2270
      6 C         142.8350  139.7774  167.3743 C.ar    1  UNL1        0.1004
      7 C         142.1545  141.0784  167.6815 C.ar    1  UNL1        0.0208
      8 C         142.1694  141.9147  166.4364 C.ar    1  UNL1        0.0219
      9 C         142.8590  141.1307  165.3596 C.ar    1  UNL1        0.0961
     10 C         141.5630  141.4736  169.0021 C.ar    1  UNL1        0.0046
     11 C         140.5582  142.5852  169.0713 C.ar    1  UNL1        0.0207
     12 C         139.9667  142.9804  170.3919 C.ar    1  UNL1        0.0989
     13 N         140.3801  142.2641  171.6433 N.ar    1  UNL1       -0.2423
     14 C         141.3849  141.1526  171.5742 C.ar    1  UNL1        0.0989
     15 C         141.9764  140.7574  170.2535 C.ar    1  UNL1        0.0207
     16 C         144.1900  140.7643  161.6388 C.2     1  UNL1        0.2456
     17 N         143.9263  139.7442  160.5712 N.am    1  UNL1       -0.3252
     18 O         144.7602  142.1025  161.2730 O.2     1  UNL1       -0.2703
     19 H         143.5520  138.8658  160.8113 H       1  UNL1        0.1453
     20 H         144.1275  139.9530  159.6304 H       1  UNL1        0.1453
     21 N         142.7542  142.7697  163.3465 N.pl3   1  UNL1       -0.3327
     22 H         143.4337  143.4551  163.1522 H       1  UNL1        0.1468
     23 C         142.1290  144.8661  162.8545 C.3     1  UNL1        0.0029
     24 C         140.7160  144.3812  162.7187 C.3     1  UNL1        0.0282
     25 C         140.4200  145.8174  162.4028 C.3     1  UNL1        0.0029
     26 C         141.3074  143.0464  163.0630 C.3     1  UNL1        0.0702
     27 C         140.1980  142.0369  163.0739 C.3     1  UNL1        0.0208
     28 C         138.9211  142.7477  162.7364 C.3     1  UNL1        0.0160
     29 C         139.2412  144.1966  162.5169 C.3     1  UNL1        0.0404
     30 C         139.2535  145.6714  162.2432 C.3     1  UNL1        0.0156
     31 N         137.7689  144.3203  162.2579 N.3     1  UNL1       -0.3231
     32 H         137.3280  143.4060  162.3581 H       1  UNL1        0.1188
     33 H         137.6183  144.6684  161.3110 H       1  UNL1        0.1188
@<TRIPOS>BOND
     1    23    24    1
     2    24    25    1
     3    24    26    1
     4    26    21    1
     5    21     1    1
     6     1     2   ar
     7     2    16    1
     8    16    17   am
     9    16    18    2
    10     2     3   ar
    11     3     4   ar
    12     4     5   ar
    13     5     6   ar
    14     6     7   ar
    15     7    10    1
    16    10    11   ar
    17    11    12   ar
    18    12    13   ar
    19    13    14   ar
    20    14    15   ar
    21     7     8   ar
    22     8     9   ar
    23    26    27    1
    24    27    28    1
    25    28    29    1
    26    29    30    1
    27    29    31    1
    28    29    24    1
    29     9     1   ar
    30     9     5   ar
    31    15    10   ar
    32    21    22    1
    33    17    19    1
    34    17    20    1
    35    31    32    1
    36    31    33    1
@<TRIPOS>MOLECULE
*****
 33 36 0 0 0
SMALL
GASTEIGER

@<TRIPOS>ATOM
      1 C         139.4962  140.4093  167.1068 C.ar    1  UNL1        0.0685
      2 C         139.4180  140.0019  168.5483 C.ar    1  UNL1        0.0885
      3 C         140.5888  140.2319  169.4572 C.ar    1  UNL1        0.1263
      4 N         141.8380  140.8692  168.9247 N.ar    1  UNL1       -0.1633
      5 N         141.9161  141.2766  167.4832 N.ar    1  UNL1       -0.2270
      6 C         143.0067  141.9213  166.6802 C.ar    1  UNL1        0.1004
      7 C         142.5099  142.0898  165.2749 C.ar    1  UNL1        0.0208
      8 C         141.1122  141.5493  165.2095 C.ar    1  UNL1        0.0219
      9 C         140.7452  141.0467  166.5743 C.ar    1  UNL1        0.0961
     10 C         143.2762  142.6930  164.1352 C.ar    1  UNL1        0.0046
     11 C         143.2856  144.1804  163.9417 C.ar    1  UNL1        0.0207
     12 C         144.0519  144.7835  162.8019 C.ar    1  UNL1        0.0989
     13 N         144.8087  143.8993  161.8557 N.ar    1  UNL1       -0.2423
     14 C         144.7993  142.4119  162.0492 C.ar    1  UNL1        0.0989
     15 C         144.0330  141.8088  163.1890 C.ar    1  UNL1        0.0207
     16 C         138.1689  139.3646  169.0809 C.2     1  UNL1        0.2456
     17 N         137.7131  139.6608  170.4789 N.am    1  UNL1       -0.3252
     18 O         137.3756  138.4311  168.2154 O.2     1  UNL1       -0.2703
     19 H         138.2339  140.2735  171.0469 H       1  UNL1        0.1453
     20 H         136.8933  139.2425  170.8285 H       1  UNL1        0.1453
     21 N         138.3253  140.1794  166.1979 N.pl3   1  UNL1       -0.3327
     22 H         137.4458  140.5610  166.4219 H       1  UNL1        0.1468
     23 C         137.7342  141.0826  164.2327 C.3     1  UNL1        0.0029
     24 C         138.1530  139.8112  163.5559 C.3     1  UNL1        0.0282
     25 C         137.7240  140.5203  162.3057 C.3     1  UNL1        0.0029
     26 C         138.4943  139.3679  164.9477 C.3     1  UNL1        0.0702
     27 C         139.0344  137.9707  164.8697 C.3     1  UNL1        0.0208
     28 C         139.0269  137.5505  163.4299 C.3     1  UNL1        0.0160
     29 C         138.4821  138.6880  162.6179 C.3     1  UNL1        0.0404
     30 C         137.9843  139.6319  161.5637 C.3     1  UNL1        0.0156
     31 N         138.7071  137.7620  161.4594 N.3     1  UNL1       -0.3231
     32 H         139.0942  136.8813  161.7984 H       1  UNL1        0.1188
     33 H         139.3604  138.1905  160.8037 H       1  UNL1        0.1188
@<TRIPOS>BOND
     1    23    24    1
     2    24    25    1
     3    24    26    1
     4    26    21    1
     5    21     1    1
     6     1     2   ar
     7     2    16    1
     8    16    17   am
     9    16    18    2
    10     2     3   ar
    11     3     4   ar
    12     4     5   ar
    13     5     6   ar
    14     6     7   ar
    15     7    10    1
    16    10    11   ar
    17    11    12   ar
    18    12    13   ar
    19    13    14   ar
    20    14    15   ar
    21     7     8   ar
    22     8     9   ar
    23    26    27    1
    24    27    28    1
    25    28    29    1
    26    29    30    1
    27    29    31    1
    28    29    24    1
    29     9     1   ar
    30     9     5   ar
    31    15    10   ar
    32    21    22    1
    33    17    19    1
    34    17    20    1
    35    31    32    1
    36    31    33    1
