@<TRIPOS>MOLECULE
*****
 29 33 0 0 0
SMALL
GASTEIGER

@<TRIPOS>ATOM
      1 C         139.8662  141.9163  165.7164 C.2     1  UNL1        0.0020
      2 C         140.2386  142.4553  167.0658 C.2     1  UNL1        0.0130
      3 C         140.1704  141.5674  168.2729 C.3     1  UNL1        0.1542
      4 C         140.6109  142.9941  168.4152 C.3     1  UNL1        0.0614
      5 C         140.9833  143.5330  169.7646 C.3     1  UNL1        0.0725
      6 N         140.9150  142.6451  170.9717 N.3     1  UNL1       -0.2972
      7 C         140.4745  141.2184  170.8294 C.3     1  UNL1        0.0725
      8 C         140.1022  140.6795  169.4800 C.3     1  UNL1        0.0614
      9 O         139.7298  140.1406  168.1305 O.3     1  UNL1       -0.4785
     10 C         139.3575  139.6017  166.7811 C.ar    1  UNL1        0.1386
     11 C         138.9169  138.1749  166.6387 C.ar    1  UNL1        0.0369
     12 C         138.5445  137.6360  165.2893 C.ar    1  UNL1        0.0031
     13 C         138.6127  138.5239  164.0823 C.ar    1  UNL1        0.0002
     14 C         139.0533  139.9506  164.2246 C.ar    1  UNL1        0.0030
     15 C         139.4257  140.4896  165.5740 C.ar    1  UNL1        0.0338
     16 H         140.2711  143.0882  171.6271 H       1  UNL1        0.1233
     17 N         141.0873  145.1442  159.7716 N.am    1  UNL1       -0.2757
     18 C         141.9673  143.9329  159.8624 C.3     1  UNL1        0.0984
     19 C         141.8991  143.0450  161.0695 C.3     1  UNL1        0.0480
     20 C         140.9509  143.3685  162.1858 C.ar    1  UNL1       -0.0161
     21 C         140.8827  142.4806  163.3929 C.ar    1  UNL1       -0.0041
     22 C         139.9344  142.8042  164.5093 C.ar    1  UNL1       -0.0004
     23 C         139.0545  144.0155  164.4185 C.ar    1  UNL1        0.0001
     24 C         139.1227  144.9034  163.2114 C.ar    1  UNL1        0.0042
     25 C         140.0709  144.5799  162.0951 C.ar    1  UNL1        0.0497
     26 C         140.1391  145.4678  160.8880 C.2     1  UNL1        0.2487
     27 O         139.2591  146.6791  160.7973 O.2     1  UNL1       -0.2699
     28 C         142.1649  145.7593  157.4889 C.3     1  UNL1        0.0233
     29 C         141.1555  146.0321  158.5646 C.3     1  UNL1        0.0938
@<TRIPOS>BOND
     1    28    29    1
     2    29    17    1
     3    17    18    1
     4    18    19    1
     5    19    20    1
     6    20    21   ar
     7    21    22   ar
     8    22     1    1
     9     1     2    2
    10     2     3    1
    11     3     4    1
    12     4     5    1
    13     5     6    1
    14     6     7    1
    15     7     8    1
    16     3     9    1
    17     9    10    1
    18    10    11   ar
    19    11    12   ar
    20    12    13   ar
    21    13    14   ar
    22    14    15   ar
    23    22    23   ar
    24    23    24   ar
    25    24    25   ar
    26    25    26    1
    27    26    27    2
    28    26    17   am
    29    25    20   ar
    30    15     1    1
    31     8     3    1
    32    15    10   ar
    33     6    16    1
@<TRIPOS>MOLECULE
*****
 29 33 0 0 0
SMALL
GASTEIGER

@<TRIPOS>ATOM
      1 C         141.4083  142.0312  166.2634 C.2     1  UNL1        0.0020
      2 C         140.9253  142.5019  167.6032 C.2     1  UNL1        0.0130
      3 C         141.2137  141.6910  168.8317 C.3     1  UNL1        0.1542
      4 C         140.4422  142.9726  168.9430 C.3     1  UNL1        0.0614
      5 C         139.9592  143.4432  170.2829 C.3     1  UNL1        0.0725
      6 N         140.2477  142.6323  171.5114 N.3     1  UNL1       -0.2972
      7 C         141.0191  141.3507  171.4000 C.3     1  UNL1        0.0725
      8 C         141.5021  140.8801  170.0602 C.3     1  UNL1        0.0614
      9 O         141.9852  140.4094  168.7204 O.3     1  UNL1       -0.4785
     10 C         142.4682  139.9388  167.3805 C.ar    1  UNL1        0.1386
     11 C         143.2397  138.6572  167.2692 C.ar    1  UNL1        0.0369
     12 C         143.7228  138.1865  165.9294 C.ar    1  UNL1        0.0031
     13 C         143.4343  138.9975  164.7009 C.ar    1  UNL1        0.0002
     14 C         142.6629  140.2790  164.8122 C.ar    1  UNL1        0.0030
     15 C         142.1798  140.7497  166.1520 C.ar    1  UNL1        0.0338
     16 H         139.3465  142.3982  171.9280 H       1  UNL1        0.1233
     17 N         141.0191  145.0181  160.0846 N.am    1  UNL1       -0.2757
     18 C         142.0719  143.9503  160.0483 C.3     1  UNL1        0.0984
     19 C         142.3604  143.1394  161.2768 C.3     1  UNL1        0.0480
     20 C         141.5960  143.3962  162.5416 C.ar    1  UNL1       -0.0161
     21 C         141.8844  142.5853  163.7701 C.ar    1  UNL1       -0.0041
     22 C         141.1199  142.8422  165.0349 C.ar    1  UNL1       -0.0004
     23 C         140.0670  143.9099  165.0711 C.ar    1  UNL1        0.0001
     24 C         139.7786  144.7208  163.8426 C.ar    1  UNL1        0.0042
     25 C         140.5430  144.4640  162.5779 C.ar    1  UNL1        0.0497
     26 C         140.2546  145.2749  161.3494 C.2     1  UNL1        0.2487
     27 O         139.2017  146.3426  161.3856 O.2     1  UNL1       -0.2699
     28 C         141.7088  145.8414  157.7189 C.3     1  UNL1        0.0233
     29 C         140.7306  145.8290  158.8561 C.3     1  UNL1        0.0938
@<TRIPOS>BOND
     1    28    29    1
     2    29    17    1
     3    17    18    1
     4    18    19    1
     5    19    20    1
     6    20    21   ar
     7    21    22   ar
     8    22     1    1
     9     1     2    2
    10     2     3    1
    11     3     4    1
    12     4     5    1
    13     5     6    1
    14     6     7    1
    15     7     8    1
    16     3     9    1
    17     9    10    1
    18    10    11   ar
    19    11    12   ar
    20    12    13   ar
    21    13    14   ar
    22    14    15   ar
    23    22    23   ar
    24    23    24   ar
    25    24    25   ar
    26    25    26    1
    27    26    27    2
    28    26    17   am
    29    25    20   ar
    30    15     1    1
    31     8     3    1
    32    15    10   ar
    33     6    16    1
@<TRIPOS>MOLECULE
*****
 29 33 0 0 0
SMALL
GASTEIGER

@<TRIPOS>ATOM
      1 C         141.0606  141.4535  166.4267 C.2     1  UNL1        0.0020
      2 C         141.7186  141.9816  167.6671 C.2     1  UNL1        0.0130
      3 C         141.2330  141.5451  169.0175 C.3     1  UNL1        0.1542
      4 C         142.3765  142.5096  168.9073 C.3     1  UNL1        0.0614
      5 C         143.0344  143.0376  170.1476 C.3     1  UNL1        0.0725
      6 N         142.5488  142.6011  171.4980 N.3     1  UNL1       -0.2972
      7 C         141.4053  141.6367  171.6082 C.3     1  UNL1        0.0725
      8 C         140.7474  141.1087  170.3680 C.3     1  UNL1        0.0614
      9 O         140.0895  140.5806  169.1276 O.3     1  UNL1       -0.4785
     10 C         139.4316  140.0526  167.8874 C.ar    1  UNL1        0.1386
     11 C         138.2880  139.0881  167.9975 C.ar    1  UNL1        0.0369
     12 C         137.6301  138.5601  166.7572 C.ar    1  UNL1        0.0031
     13 C         138.1157  138.9965  165.4068 C.ar    1  UNL1        0.0002
     14 C         139.2592  139.9610  165.2966 C.ar    1  UNL1        0.0030
     15 C         139.9171  140.4891  166.5369 C.ar    1  UNL1        0.0338
     16 H         142.2710  143.4456  171.9981 H       1  UNL1        0.1233
     17 N         143.8930  142.2986  160.2208 N.am    1  UNL1       -0.2757
     18 C         144.2973  140.9614  160.7671 C.3     1  UNL1        0.0984
     19 C         143.8117  140.5250  162.1175 C.3     1  UNL1        0.0480
     20 C         142.9218  141.4257  162.9217 C.ar    1  UNL1       -0.0161
     21 C         142.4362  140.9892  164.2721 C.ar    1  UNL1       -0.0041
     22 C         141.5462  141.8900  165.0763 C.ar    1  UNL1       -0.0004
     23 C         141.1419  143.2271  164.5300 C.ar    1  UNL1        0.0001
     24 C         141.6275  143.6636  163.1796 C.ar    1  UNL1        0.0042
     25 C         142.5174  142.7629  162.3754 C.ar    1  UNL1        0.0497
     26 C         143.0030  143.1994  161.0250 C.2     1  UNL1        0.2487
     27 O         142.5986  144.5365  160.4787 O.2     1  UNL1       -0.2699
     28 C         144.6442  141.7149  157.8031 C.3     1  UNL1        0.0233
     29 C         144.3786  142.7350  158.8703 C.3     1  UNL1        0.0938
@<TRIPOS>BOND
     1    28    29    1
     2    29    17    1
     3    17    18    1
     4    18    19    1
     5    19    20    1
     6    20    21   ar
     7    21    22   ar
     8    22     1    1
     9     1     2    2
    10     2     3    1
    11     3     4    1
    12     4     5    1
    13     5     6    1
    14     6     7    1
    15     7     8    1
    16     3     9    1
    17     9    10    1
    18    10    11   ar
    19    11    12   ar
    20    12    13   ar
    21    13    14   ar
    22    14    15   ar
    23    22    23   ar
    24    23    24   ar
    25    24    25   ar
    26    25    26    1
    27    26    27    2
    28    26    17   am
    29    25    20   ar
    30    15     1    1
    31     8     3    1
    32    15    10   ar
    33     6    16    1
@<TRIPOS>MOLECULE
*****
 29 33 0 0 0
SMALL
GASTEIGER

@<TRIPOS>ATOM
      1 C         141.5279  140.4670  166.2389 C.2     1  UNL1        0.0020
      2 C         142.2829  141.1813  167.3206 C.2     1  UNL1        0.0130
      3 C         141.7115  141.2637  168.7050 C.3     1  UNL1        0.1542
      4 C         143.0378  141.8955  168.4022 C.3     1  UNL1        0.0614
      5 C         143.7927  142.6096  169.4838 C.3     1  UNL1        0.0725
      6 N         143.2214  142.6920  170.8683 N.3     1  UNL1       -0.2972
      7 C         141.8951  142.0602  171.1711 C.3     1  UNL1        0.0725
      8 C         141.1402  141.3460  170.0895 C.3     1  UNL1        0.0614
      9 O         140.3852  140.6318  169.0079 O.3     1  UNL1       -0.4785
     10 C         139.6302  139.9176  167.9262 C.ar    1  UNL1        0.1386
     11 C         138.3039  139.2858  168.2290 C.ar    1  UNL1        0.0369
     12 C         137.5489  138.5716  167.1474 C.ar    1  UNL1        0.0031
     13 C         138.1203  138.4892  165.7629 C.ar    1  UNL1        0.0002
     14 C         139.4466  139.1210  165.4601 C.ar    1  UNL1        0.0030
     15 C         140.2016  139.8352  166.5417 C.ar    1  UNL1        0.0338
     16 H         143.1333  143.6833  171.0920 H       1  UNL1        0.1233
     17 N         143.7097  141.3137  159.7757 N.am    1  UNL1       -0.2757
     18 C         143.0349  142.5721  160.2349 C.3     1  UNL1        0.0984
     19 C         142.4636  142.6545  161.6194 C.3     1  UNL1        0.0480
     20 C         142.5671  141.4784  162.5447 C.ar    1  UNL1       -0.0161
     21 C         141.9957  141.5608  163.9291 C.ar    1  UNL1       -0.0041
     22 C         142.0992  140.3847  164.8544 C.ar    1  UNL1       -0.0004
     23 C         142.7740  139.1262  164.3952 C.ar    1  UNL1        0.0001
     24 C         143.3454  139.0438  163.0107 C.ar    1  UNL1        0.0042
     25 C         143.2419  140.2199  162.0855 C.ar    1  UNL1        0.0497
     26 C         143.8132  140.1375  160.7010 C.2     1  UNL1        0.2487
     27 O         144.4880  138.8791  160.2418 O.2     1  UNL1       -0.2699
     28 C         145.1060  142.3621  157.8518 C.3     1  UNL1        0.0233
     29 C         144.2811  141.2313  158.3912 C.3     1  UNL1        0.0938
@<TRIPOS>BOND
     1    28    29    1
     2    29    17    1
     3    17    18    1
     4    18    19    1
     5    19    20    1
     6    20    21   ar
     7    21    22   ar
     8    22     1    1
     9     1     2    2
    10     2     3    1
    11     3     4    1
    12     4     5    1
    13     5     6    1
    14     6     7    1
    15     7     8    1
    16     3     9    1
    17     9    10    1
    18    10    11   ar
    19    11    12   ar
    20    12    13   ar
    21    13    14   ar
    22    14    15   ar
    23    22    23   ar
    24    23    24   ar
    25    24    25   ar
    26    25    26    1
    27    26    27    2
    28    26    17   am
    29    25    20   ar
    30    15     1    1
    31     8     3    1
    32    15    10   ar
    33     6    16    1
@<TRIPOS>MOLECULE
*****
 29 33 0 0 0
SMALL
GASTEIGER

@<TRIPOS>ATOM
      1 C         141.1684  141.3514  166.3167 C.2     1  UNL1        0.0020
      2 C         141.8370  141.9085  167.5385 C.2     1  UNL1        0.0130
      3 C         141.3397  141.5327  168.9028 C.3     1  UNL1        0.1542
      4 C         142.5055  142.4656  168.7602 C.3     1  UNL1        0.0614
      5 C         143.1741  143.0227  169.9819 C.3     1  UNL1        0.0725
      6 N         142.6767  142.6469  171.3463 N.3     1  UNL1       -0.2972
      7 C         141.5108  141.7140  171.4889 C.3     1  UNL1        0.0725
      8 C         140.8423  141.1569  170.2672 C.3     1  UNL1        0.0614
      9 O         140.1737  140.5998  169.0454 O.3     1  UNL1       -0.4785
     10 C         139.5052  140.0427  167.8237 C.ar    1  UNL1        0.1386
     11 C         138.3392  139.1097  167.9662 C.ar    1  UNL1        0.0369
     12 C         137.6707  138.5526  166.7445 C.ar    1  UNL1        0.0031
     13 C         138.1680  138.9284  165.3802 C.ar    1  UNL1        0.0002
     14 C         139.3339  139.8613  165.2376 C.ar    1  UNL1        0.0030
     15 C         140.0025  140.4185  166.4593 C.ar    1  UNL1        0.0338
     16 H         142.4181  143.5152  171.8149 H       1  UNL1        0.1233
     17 N         142.2815  143.6444  159.9329 N.am    1  UNL1       -0.2757
     18 C         140.9079  144.0584  160.3708 C.3     1  UNL1        0.0984
     19 C         140.4106  143.6826  161.7351 C.3     1  UNL1        0.0480
     20 C         141.2868  142.8928  162.6616 C.ar    1  UNL1       -0.0161
     21 C         140.7894  142.5170  164.0259 C.ar    1  UNL1       -0.0041
     22 C         141.6658  141.7272  164.9524 C.ar    1  UNL1       -0.0004
     23 C         143.0393  141.3131  164.5145 C.ar    1  UNL1        0.0001
     24 C         143.5367  141.6889  163.1501 C.ar    1  UNL1        0.0042
     25 C         142.6605  142.4787  162.2237 C.ar    1  UNL1        0.0497
     26 C         143.1578  142.8545  160.8594 C.2     1  UNL1        0.2487
     27 O         144.5314  142.4405  160.4215 O.2     1  UNL1       -0.2699
     28 C         142.1627  145.1763  157.8378 C.3     1  UNL1        0.0233
     29 C         142.7789  144.0202  158.5686 C.3     1  UNL1        0.0938
@<TRIPOS>BOND
     1    28    29    1
     2    29    17    1
     3    17    18    1
     4    18    19    1
     5    19    20    1
     6    20    21   ar
     7    21    22   ar
     8    22     1    1
     9     1     2    2
    10     2     3    1
    11     3     4    1
    12     4     5    1
    13     5     6    1
    14     6     7    1
    15     7     8    1
    16     3     9    1
    17     9    10    1
    18    10    11   ar
    19    11    12   ar
    20    12    13   ar
    21    13    14   ar
    22    14    15   ar
    23    22    23   ar
    24    23    24   ar
    25    24    25   ar
    26    25    26    1
    27    26    27    2
    28    26    17   am
    29    25    20   ar
    30    15     1    1
    31     8     3    1
    32    15    10   ar
    33     6    16    1
@<TRIPOS>MOLECULE
*****
 29 33 0 0 0
SMALL
GASTEIGER

@<TRIPOS>ATOM
      1 C         142.1567  142.3596  162.4745 C.2     1  UNL1        0.0020
      2 C         142.6776  141.2737  161.5802 C.2     1  UNL1        0.0130
      3 C         142.4917  141.3717  160.0950 C.3     1  UNL1        0.1542
      4 C         143.1984  140.1880  160.6859 C.3     1  UNL1        0.0614
      5 C         143.7192  139.1022  159.7916 C.3     1  UNL1        0.0725
      6 N         143.5333  139.2002  158.3064 N.3     1  UNL1       -0.2972
      7 C         142.8266  140.3840  157.7155 C.3     1  UNL1        0.0725
      8 C         142.3058  141.4698  158.6098 C.3     1  UNL1        0.0614
      9 O         141.7850  142.5556  159.5041 O.3     1  UNL1       -0.4785
     10 C         141.2642  143.6414  160.3984 C.ar    1  UNL1        0.1386
     11 C         140.5574  144.8252  159.8075 C.ar    1  UNL1        0.0369
     12 C         140.0366  145.9110  160.7018 C.ar    1  UNL1        0.0031
     13 C         140.2225  145.8130  162.1871 C.ar    1  UNL1        0.0002
     14 C         140.9292  144.6292  162.7779 C.ar    1  UNL1        0.0030
     15 C         141.4501  143.5433  161.8836 C.ar    1  UNL1        0.0338
     16 H         143.0110  138.3723  158.0197 H       1  UNL1        0.1233
     17 N         141.9467  141.1530  169.2384 N.am    1  UNL1       -0.2757
     18 C         140.8072  140.4367  168.5763 C.3     1  UNL1        0.0984
     19 C         140.6214  140.5347  167.0911 C.3     1  UNL1        0.0480
     20 C         141.5749  141.3491  166.2680 C.ar    1  UNL1       -0.0161
     21 C         141.3890  141.4471  164.7828 C.ar    1  UNL1       -0.0041
     22 C         142.3426  142.2615  163.9597 C.ar    1  UNL1       -0.0004
     23 C         143.4821  142.9779  164.6219 C.ar    1  UNL1        0.0001
     24 C         143.6679  142.8799  166.1071 C.ar    1  UNL1        0.0042
     25 C         142.7144  142.0655  166.9301 C.ar    1  UNL1        0.0497
     26 C         142.9003  141.9675  168.4153 C.2     1  UNL1        0.2487
     27 O         144.0397  142.6838  169.0775 O.2     1  UNL1       -0.2699
     28 C         141.0123  141.4341  171.6463 C.3     1  UNL1        0.0233
     29 C         142.1326  141.0550  170.7236 C.3     1  UNL1        0.0938
@<TRIPOS>BOND
     1    28    29    1
     2    29    17    1
     3    17    18    1
     4    18    19    1
     5    19    20    1
     6    20    21   ar
     7    21    22   ar
     8    22     1    1
     9     1     2    2
    10     2     3    1
    11     3     4    1
    12     4     5    1
    13     5     6    1
    14     6     7    1
    15     7     8    1
    16     3     9    1
    17     9    10    1
    18    10    11   ar
    19    11    12   ar
    20    12    13   ar
    21    13    14   ar
    22    14    15   ar
    23    22    23   ar
    24    23    24   ar
    25    24    25   ar
    26    25    26    1
    27    26    27    2
    28    26    17   am
    29    25    20   ar
    30    15     1    1
    31     8     3    1
    32    15    10   ar
    33     6    16    1
@<TRIPOS>MOLECULE
*****
 29 33 0 0 0
SMALL
GASTEIGER

@<TRIPOS>ATOM
      1 C         140.9288  140.1532  163.6018 C.2     1  UNL1        0.0020
      2 C         139.9611  139.6777  164.6446 C.2     1  UNL1        0.0130
      3 C         140.1337  140.0965  166.0746 C.3     1  UNL1        0.1542
      4 C         138.9933  139.2024  165.6874 C.3     1  UNL1        0.0614
      5 C         138.0256  138.7270  166.7302 C.3     1  UNL1        0.0725
      6 N         138.1983  139.1458  168.1602 N.3     1  UNL1       -0.2972
      7 C         139.3387  140.0400  168.5474 C.3     1  UNL1        0.0725
      8 C         140.3064  140.5154  167.5045 C.3     1  UNL1        0.0614
      9 O         141.2742  140.9908  166.4617 O.3     1  UNL1       -0.4785
     10 C         142.2419  141.4662  165.4189 C.ar    1  UNL1        0.1386
     11 C         143.3823  142.3604  165.8060 C.ar    1  UNL1        0.0369
     12 C         144.3500  142.8358  164.7632 C.ar    1  UNL1        0.0031
     13 C         144.1774  142.4170  163.3333 C.ar    1  UNL1        0.0002
     14 C         143.0370  141.5228  162.9461 C.ar    1  UNL1        0.0030
     15 C         142.0692  141.0474  163.9889 C.ar    1  UNL1        0.0338
     16 H         138.2956  138.2907  168.7078 H       1  UNL1        0.1233
     17 N         141.3312  137.7239  157.1841 N.am    1  UNL1       -0.2757
     18 C         142.5967  137.3887  157.9162 C.3     1  UNL1        0.0984
     19 C         142.7694  137.8076  159.3461 C.3     1  UNL1        0.0480
     20 C         141.6765  138.5615  160.0440 C.ar    1  UNL1       -0.0161
     21 C         141.8492  138.9803  161.4740 C.ar    1  UNL1       -0.0041
     22 C         140.7562  139.7344  162.1718 C.ar    1  UNL1       -0.0004
     23 C         139.4906  140.0695  161.4397 C.ar    1  UNL1        0.0001
     24 C         139.3180  139.6507  160.0098 C.ar    1  UNL1        0.0042
     25 C         140.4109  138.8968  159.3119 C.ar    1  UNL1        0.0497
     26 C         140.2382  138.4780  157.8819 C.2     1  UNL1        0.2487
     27 O         138.9727  138.8131  157.1499 O.2     1  UNL1       -0.2699
     28 C         141.0939  135.8485  155.4018 C.3     1  UNL1        0.0233
     29 C         141.1585  137.3051  155.7541 C.3     1  UNL1        0.0938
@<TRIPOS>BOND
     1    28    29    1
     2    29    17    1
     3    17    18    1
     4    18    19    1
     5    19    20    1
     6    20    21   ar
     7    21    22   ar
     8    22     1    1
     9     1     2    2
    10     2     3    1
    11     3     4    1
    12     4     5    1
    13     5     6    1
    14     6     7    1
    15     7     8    1
    16     3     9    1
    17     9    10    1
    18    10    11   ar
    19    11    12   ar
    20    12    13   ar
    21    13    14   ar
    22    14    15   ar
    23    22    23   ar
    24    23    24   ar
    25    24    25   ar
    26    25    26    1
    27    26    27    2
    28    26    17   am
    29    25    20   ar
    30    15     1    1
    31     8     3    1
    32    15    10   ar
    33     6    16    1
@<TRIPOS>MOLECULE
*****
 29 33 0 0 0
SMALL
GASTEIGER

@<TRIPOS>ATOM
      1 C         140.2696  140.2813  160.7333 C.2     1  UNL1        0.0020
      2 C         140.2190  141.7712  160.5665 C.2     1  UNL1        0.0130
      3 C         139.6603  142.6300  161.6621 C.3     1  UNL1        0.1542
      4 C         140.1684  143.2610  160.3997 C.3     1  UNL1        0.0614
      5 C         140.1178  144.7508  160.2329 C.3     1  UNL1        0.0725
      6 N         139.5591  145.6096  161.3285 N.3     1  UNL1       -0.2972
      7 C         139.0510  144.9786  162.5909 C.3     1  UNL1        0.0725
      8 C         139.1016  143.4888  162.7576 C.3     1  UNL1        0.0614
      9 O         139.1522  141.9989  162.9245 O.3     1  UNL1       -0.4785
     10 C         139.2028  140.5091  163.0913 C.ar    1  UNL1        0.1386
     11 C         138.6946  139.8780  164.3537 C.ar    1  UNL1        0.0369
     12 C         138.7452  138.3882  164.5205 C.ar    1  UNL1        0.0031
     13 C         139.3039  137.5294  163.4249 C.ar    1  UNL1        0.0002
     14 C         139.8120  138.1604  162.1625 C.ar    1  UNL1        0.0030
     15 C         139.7615  139.6503  161.9957 C.ar    1  UNL1        0.0338
     16 H         138.7804  146.1310  160.9258 H       1  UNL1        0.1233
     17 N         141.5944  136.2900  155.2960 N.am    1  UNL1       -0.2757
     18 C         140.1259  136.5929  155.3366 C.3     1  UNL1        0.0984
     19 C         139.5672  137.4517  156.4321 C.3     1  UNL1        0.0480
     20 C         140.4770  138.0077  157.4871 C.ar    1  UNL1       -0.0161
     21 C         139.9183  138.8665  158.5827 C.ar    1  UNL1       -0.0041
     22 C         140.8283  139.4225  159.6377 C.ar    1  UNL1       -0.0004
     23 C         142.2968  139.1196  159.5972 C.ar    1  UNL1        0.0001
     24 C         142.8555  138.2608  158.5016 C.ar    1  UNL1        0.0042
     25 C         141.9456  137.7048  157.4466 C.ar    1  UNL1        0.0497
     26 C         142.5043  136.8460  156.3510 C.2     1  UNL1        0.2487
     27 O         143.9729  136.5432  156.3104 O.2     1  UNL1       -0.2699
     28 C         142.1288  133.9372  154.3323 C.3     1  UNL1        0.0233
     29 C         142.1531  135.4312  154.2004 C.3     1  UNL1        0.0938
@<TRIPOS>BOND
     1    28    29    1
     2    29    17    1
     3    17    18    1
     4    18    19    1
     5    19    20    1
     6    20    21   ar
     7    21    22   ar
     8    22     1    1
     9     1     2    2
    10     2     3    1
    11     3     4    1
    12     4     5    1
    13     5     6    1
    14     6     7    1
    15     7     8    1
    16     3     9    1
    17     9    10    1
    18    10    11   ar
    19    11    12   ar
    20    12    13   ar
    21    13    14   ar
    22    14    15   ar
    23    22    23   ar
    24    23    24   ar
    25    24    25   ar
    26    25    26    1
    27    26    27    2
    28    26    17   am
    29    25    20   ar
    30    15     1    1
    31     8     3    1
    32    15    10   ar
    33     6    16    1
@<TRIPOS>MOLECULE
*****
 29 33 0 0 0
SMALL
GASTEIGER

@<TRIPOS>ATOM
      1 C         138.5009  142.3788  157.9247 C.2     1  UNL1        0.0020
      2 C         139.4221  143.5515  157.7624 C.2     1  UNL1        0.0130
      3 C         139.2636  144.4731  156.5895 C.3     1  UNL1        0.1542
      4 C         140.3433  144.7241  157.6001 C.3     1  UNL1        0.0614
      5 C         141.2644  145.8967  157.4378 C.3     1  UNL1        0.0725
      6 N         141.1059  146.8183  156.2649 N.3     1  UNL1       -0.2972
      7 C         140.0262  146.5673  155.2544 C.3     1  UNL1        0.0725
      8 C         139.1051  145.3946  155.4167 C.3     1  UNL1        0.0614
      9 O         138.1838  144.2220  155.5790 O.3     1  UNL1       -0.4785
     10 C         137.2627  143.0493  155.7413 C.ar    1  UNL1        0.1386
     11 C         136.1830  142.7982  154.7307 C.ar    1  UNL1        0.0369
     12 C         135.2618  141.6256  154.8930 C.ar    1  UNL1        0.0031
     13 C         135.4203  140.7040  156.0659 C.ar    1  UNL1        0.0002
     14 C         136.5000  140.9551  157.0764 C.ar    1  UNL1        0.0030
     15 C         137.4212  142.1278  156.9141 C.ar    1  UNL1        0.0338
     16 H         141.9914  146.8059  155.7589 H       1  UNL1        0.1233
     17 N         138.6255  139.1022  163.9661 N.am    1  UNL1       -0.2757
     18 C         137.9574  140.4335  164.1432 C.3     1  UNL1        0.0984
     19 C         137.7988  141.3550  162.9704 C.3     1  UNL1        0.0480
     20 C         138.3084  140.9454  161.6204 C.ar    1  UNL1       -0.0161
     21 C         138.1499  141.8670  160.4475 C.ar    1  UNL1       -0.0041
     22 C         138.6594  141.4572  159.0975 C.ar    1  UNL1       -0.0004
     23 C         139.3275  140.1260  158.9204 C.ar    1  UNL1        0.0001
     24 C         139.4861  139.2044  160.0932 C.ar    1  UNL1        0.0042
     25 C         138.9765  139.6141  161.4432 C.ar    1  UNL1        0.0497
     26 C         139.1350  138.6925  162.6160 C.2     1  UNL1        0.2487
     27 O         139.8031  137.3613  162.4389 O.2     1  UNL1       -0.2699
     28 C         138.0476  138.4584  166.4159 C.3     1  UNL1        0.0233
     29 C         138.7840  138.1807  165.1389 C.3     1  UNL1        0.0938
@<TRIPOS>BOND
     1    28    29    1
     2    29    17    1
     3    17    18    1
     4    18    19    1
     5    19    20    1
     6    20    21   ar
     7    21    22   ar
     8    22     1    1
     9     1     2    2
    10     2     3    1
    11     3     4    1
    12     4     5    1
    13     5     6    1
    14     6     7    1
    15     7     8    1
    16     3     9    1
    17     9    10    1
    18    10    11   ar
    19    11    12   ar
    20    12    13   ar
    21    13    14   ar
    22    14    15   ar
    23    22    23   ar
    24    23    24   ar
    25    24    25   ar
    26    25    26    1
    27    26    27    2
    28    26    17   am
    29    25    20   ar
    30    15     1    1
    31     8     3    1
    32    15    10   ar
    33     6    16    1
