@<TRIPOS>MOLECULE
*****
 36 40 0 0 0
SMALL
GASTEIGER

@<TRIPOS>ATOM
      1 N         139.0475  141.6379  160.3403 N.3     1  UNL1       -0.2690
      2 C         138.5591  140.2778  159.9384 C.3     1  UNL1        0.0724
      3 C         139.4351  139.3788  159.1172 C.3     1  UNL1        0.0175
      4 C         140.7994  139.8399  158.6978 C.3     1  UNL1        0.0060
      5 C         141.2878  141.2000  159.0997 C.3     1  UNL1        0.0175
      6 C         140.4119  142.0990  159.9209 C.3     1  UNL1        0.0724
      7 C         140.3110  138.4797  158.2959 C.3     1  UNL1        0.0217
      8 C         141.1870  137.5807  157.4747 C.3     1  UNL1        0.0937
      9 N         142.5514  138.0419  157.0554 N.am    1  UNL1       -0.2761
     10 C         143.4274  137.1428  156.2341 C.2     1  UNL1        0.2490
     11 O         144.7917  137.6039  155.8147 O.2     1  UNL1       -0.2699
     12 C         143.0398  139.4020  157.4572 C.3     1  UNL1        0.0937
     13 C         142.1638  140.3010  158.2785 C.3     1  UNL1        0.0217
     14 C         142.9390  135.7827  155.8322 C.ar    1  UNL1        0.0536
     15 C         143.0880  134.6240  156.7731 C.ar    1  UNL1        0.0054
     16 C         142.5996  133.2639  156.3713 C.ar    1  UNL1        0.0115
     17 C         141.9621  133.0624  155.0284 C.ar    1  UNL1        0.0577
     18 CL        141.4737  131.7023  154.6266 Cl      1  UNL1       -0.0822
     19 C         141.8131  134.2211  154.0875 C.ar    1  UNL1        0.0115
     20 C         142.3016  135.5812  154.4894 C.ar    1  UNL1        0.0054
     21 C         138.1715  142.5369  161.1616 C.3     1  UNL1        0.0992
     22 C         139.5580  142.2473  164.8688 C.ar    1  UNL1        0.1452
     23 C         139.3929  143.6602  165.3444 C.ar    1  UNL1        0.0375
     24 C         138.8207  144.6988  164.4257 C.ar    1  UNL1        0.0029
     25 C         138.4136  144.3244  163.0315 C.ar    1  UNL1       -0.0027
     26 C         138.5786  142.9113  162.5558 C.ar    1  UNL1       -0.0031
     27 C         139.1508  141.8728  163.4745 C.ar    1  UNL1        0.0346
     28 O         140.1302  141.2087  165.7875 O.3     1  UNL1       -0.4504
     29 C         139.3981  138.7677  165.2817 C.ar    1  UNL1        0.1730
     30 C         139.7159  137.3979  164.7597 C.ar    1  UNL1        0.0401
     31 C         141.0838  137.0991  164.2214 C.ar    1  UNL1        0.0033
     32 C         142.1338  138.1702  164.2051 C.ar    1  UNL1        0.0033
     33 C         141.8159  139.5401  164.7272 C.ar    1  UNL1        0.0406
     34 C         140.4481  139.8388  165.2654 C.ar    1  UNL1        0.1789
     35 C         137.6369  138.5770  167.1822 C.3     1  UNL1        0.2526
     36 O         138.0302  139.0665  165.8200 O.3     1  UNL1       -0.4684
@<TRIPOS>BOND
     1    35    36    1
     2    36    29    1
     3    29    30   ar
     4    30    31   ar
     5    31    32   ar
     6    32    33   ar
     7    33    34   ar
     8    34    28    1
     9    28    22    1
    10    22    23   ar
    11    23    24   ar
    12    24    25   ar
    13    25    26   ar
    14    26    21    1
    15    21     1    1
    16     1     2    1
    17     2     3    1
    18     3     4    1
    19     4     5    1
    20     5     6    1
    21     4     7    1
    22     7     8    1
    23     8     9    1
    24     9    10   am
    25    10    11    2
    26    10    14    1
    27    14    15   ar
    28    15    16   ar
    29    16    17   ar
    30    17    18    1
    31    17    19   ar
    32    19    20   ar
    33     9    12    1
    34    12    13    1
    35    26    27   ar
    36    34    29   ar
    37    27    22   ar
    38     6     1    1
    39    20    14   ar
    40    13     4    1
@<TRIPOS>MOLECULE
*****
 36 40 0 0 0
SMALL
GASTEIGER

@<TRIPOS>ATOM
      1 N         138.9996  141.0839  160.5305 N.3     1  UNL1       -0.2690
      2 C         138.6105  139.7572  159.9488 C.3     1  UNL1        0.0724
      3 C         139.5529  139.0346  159.0325 C.3     1  UNL1        0.0175
      4 C         140.8845  139.6386  158.6980 C.3     1  UNL1        0.0060
      5 C         141.2737  140.9653  159.2797 C.3     1  UNL1        0.0175
      6 C         140.3312  141.6880  160.1959 C.3     1  UNL1        0.0724
      7 C         140.4954  138.3119  158.1162 C.3     1  UNL1        0.0217
      8 C         141.4379  137.5893  157.2000 C.3     1  UNL1        0.0937
      9 N         142.7695  138.1933  156.8654 N.am    1  UNL1       -0.2761
     10 C         143.7119  137.4706  155.9491 C.2     1  UNL1        0.2490
     11 O         145.0435  138.0747  155.6146 O.2     1  UNL1       -0.2699
     12 C         143.1586  139.5200  157.4471 C.3     1  UNL1        0.0937
     13 C         142.2161  140.2427  158.3634 C.3     1  UNL1        0.0217
     14 C         143.3228  136.1439  155.3675 C.ar    1  UNL1        0.0536
     15 C         143.7536  134.8745  156.0405 C.ar    1  UNL1        0.0054
     16 C         143.3644  133.5478  155.4588 C.ar    1  UNL1        0.0115
     17 C         142.5445  133.4905  154.2040 C.ar    1  UNL1        0.0577
     18 CL        142.1553  132.1638  153.6223 Cl      1  UNL1       -0.0822
     19 C         142.1137  134.7599  153.5310 C.ar    1  UNL1        0.0115
     20 C         142.5028  136.0867  154.1127 C.ar    1  UNL1        0.0054
     21 C         138.0571  141.8066  161.4468 C.3     1  UNL1        0.0992
     22 C         139.9958  142.5536  164.8282 C.ar    1  UNL1        0.1452
     23 C         139.6497  143.9976  165.0402 C.ar    1  UNL1        0.0375
     24 C         138.7728  144.7113  164.0545 C.ar    1  UNL1        0.0029
     25 C         138.2419  143.9810  162.8567 C.ar    1  UNL1       -0.0027
     26 C         138.5880  142.5369  162.6446 C.ar    1  UNL1       -0.0031
     27 C         139.4649  141.8232  163.6303 C.ar    1  UNL1        0.0346
     28 O         140.8727  141.8399  165.8139 O.3     1  UNL1       -0.4504
     29 C         139.7413  140.4209  167.6731 C.ar    1  UNL1        0.1730
     30 C         139.2955  140.2629  169.0966 C.ar    1  UNL1        0.0401
     31 C         139.5352  141.3660  170.0844 C.ar    1  UNL1        0.0033
     32 C         140.2208  142.6271  169.6487 C.ar    1  UNL1        0.0033
     33 C         140.6666  142.7850  168.2252 C.ar    1  UNL1        0.0406
     34 C         140.4269  141.6820  167.2374 C.ar    1  UNL1        0.1789
     35 C         138.1735  139.2024  165.9976 C.3     1  UNL1        0.2526
     36 O         139.5016  139.3178  166.6852 O.3     1  UNL1       -0.4684
@<TRIPOS>BOND
     1    35    36    1
     2    36    29    1
     3    29    30   ar
     4    30    31   ar
     5    31    32   ar
     6    32    33   ar
     7    33    34   ar
     8    34    28    1
     9    28    22    1
    10    22    23   ar
    11    23    24   ar
    12    24    25   ar
    13    25    26   ar
    14    26    21    1
    15    21     1    1
    16     1     2    1
    17     2     3    1
    18     3     4    1
    19     4     5    1
    20     5     6    1
    21     4     7    1
    22     7     8    1
    23     8     9    1
    24     9    10   am
    25    10    11    2
    26    10    14    1
    27    14    15   ar
    28    15    16   ar
    29    16    17   ar
    30    17    18    1
    31    17    19   ar
    32    19    20   ar
    33     9    12    1
    34    12    13    1
    35    26    27   ar
    36    34    29   ar
    37    27    22   ar
    38     6     1    1
    39    20    14   ar
    40    13     4    1
@<TRIPOS>MOLECULE
*****
 36 40 0 0 0
SMALL
GASTEIGER

@<TRIPOS>ATOM
      1 N         143.4131  139.7014  164.1233 N.3     1  UNL1       -0.2690
      2 C         142.9749  138.3819  163.5605 C.3     1  UNL1        0.0724
      3 C         142.9379  138.1752  162.0753 C.3     1  UNL1        0.0175
      4 C         143.3393  139.2879  161.1530 C.3     1  UNL1        0.0060
      5 C         143.7776  140.6074  161.7158 C.3     1  UNL1        0.0175
      6 C         143.8145  140.8141  163.2010 C.3     1  UNL1        0.0724
      7 C         142.9009  137.9684  160.5900 C.3     1  UNL1        0.0217
      8 C         142.8640  137.7616  159.1048 C.3     1  UNL1        0.0937
      9 N         143.2654  138.8744  158.1825 N.am    1  UNL1       -0.2761
     10 C         143.2284  138.6676  156.6972 C.2     1  UNL1        0.2490
     11 O         143.6297  139.7803  155.7749 O.2     1  UNL1       -0.2699
     12 C         143.7036  140.1939  158.7453 C.3     1  UNL1        0.0937
     13 C         143.7406  140.4006  160.2306 C.3     1  UNL1        0.0217
     14 C         142.7901  137.3481  156.1344 C.ar    1  UNL1        0.0536
     15 C         143.8093  136.2995  155.8002 C.ar    1  UNL1        0.0054
     16 C         143.3710  134.9800  155.2374 C.ar    1  UNL1        0.0115
     17 C         141.9134  134.7091  155.0086 C.ar    1  UNL1        0.0577
     18 CL        141.4751  133.3897  154.4458 Cl      1  UNL1       -0.0822
     19 C         140.8943  135.7577  155.3428 C.ar    1  UNL1        0.0115
     20 C         141.3326  137.0773  155.9057 C.ar    1  UNL1        0.0054
     21 C         143.4501  139.9081  165.6086 C.3     1  UNL1        0.0992
     22 C         139.5756  139.9869  166.4643 C.ar    1  UNL1        0.1452
     23 C         139.6167  140.0001  167.9637 C.ar    1  UNL1        0.0375
     24 C         140.9355  139.9826  168.6780 C.ar    1  UNL1        0.0029
     25 C         142.2133  139.9520  167.8930 C.ar    1  UNL1       -0.0027
     26 C         142.1723  139.9388  166.3936 C.ar    1  UNL1       -0.0031
     27 C         140.8535  139.9562  165.6793 C.ar    1  UNL1        0.0346
     28 O         138.2568  140.0043  165.7500 O.3     1  UNL1       -0.4504
     29 C         137.7870  140.7577  163.3083 C.ar    1  UNL1        0.1730
     30 C         137.7240  140.4469  161.8422 C.ar    1  UNL1        0.0401
     31 C         138.0678  139.0716  161.3517 C.ar    1  UNL1        0.0033
     32 C         138.4745  138.0072  162.3272 C.ar    1  UNL1        0.0033
     33 C         138.5375  138.3182  163.7934 C.ar    1  UNL1        0.0406
     34 C         138.1938  139.6934  164.2839 C.ar    1  UNL1        0.1789
     35 C         137.7252  143.3285  162.9379 C.3     1  UNL1        0.2526
     36 O         137.4433  142.1330  163.7988 O.3     1  UNL1       -0.4684
@<TRIPOS>BOND
     1    35    36    1
     2    36    29    1
     3    29    30   ar
     4    30    31   ar
     5    31    32   ar
     6    32    33   ar
     7    33    34   ar
     8    34    28    1
     9    28    22    1
    10    22    23   ar
    11    23    24   ar
    12    24    25   ar
    13    25    26   ar
    14    26    21    1
    15    21     1    1
    16     1     2    1
    17     2     3    1
    18     3     4    1
    19     4     5    1
    20     5     6    1
    21     4     7    1
    22     7     8    1
    23     8     9    1
    24     9    10   am
    25    10    11    2
    26    10    14    1
    27    14    15   ar
    28    15    16   ar
    29    16    17   ar
    30    17    18    1
    31    17    19   ar
    32    19    20   ar
    33     9    12    1
    34    12    13    1
    35    26    27   ar
    36    34    29   ar
    37    27    22   ar
    38     6     1    1
    39    20    14   ar
    40    13     4    1
@<TRIPOS>MOLECULE
*****
 36 40 0 0 0
SMALL
GASTEIGER

@<TRIPOS>ATOM
      1 N         139.3634  141.9384  160.2823 N.3     1  UNL1       -0.2690
      2 C         138.8292  140.5691  159.9831 C.3     1  UNL1        0.0724
      3 C         139.6467  139.6051  159.1753 C.3     1  UNL1        0.0175
      4 C         140.9984  140.0105  158.6669 C.3     1  UNL1        0.0060
      5 C         141.5326  141.3798  158.9661 C.3     1  UNL1        0.0175
      6 C         140.7151  142.3437  159.7738 C.3     1  UNL1        0.0724
      7 C         140.4642  138.6411  158.3676 C.3     1  UNL1        0.0217
      8 C         141.2817  137.6771  157.5599 C.3     1  UNL1        0.0937
      9 N         142.6334  138.0825  157.0514 N.am    1  UNL1       -0.2761
     10 C         143.4509  137.1185  156.2437 C.2     1  UNL1        0.2490
     11 O         144.8027  137.5238  155.7352 O.2     1  UNL1       -0.2699
     12 C         143.1676  139.4518  157.3507 C.3     1  UNL1        0.0937
     13 C         142.3501  140.4158  158.1584 C.3     1  UNL1        0.0217
     14 C         142.9167  135.7492  155.9444 C.ar    1  UNL1        0.0536
     15 C         142.0630  135.5257  154.7314 C.ar    1  UNL1        0.0054
     16 C         141.5288  134.1564  154.4322 C.ar    1  UNL1        0.0115
     17 C         141.8483  133.0105  155.3459 C.ar    1  UNL1        0.0577
     18 CL        141.3140  131.6412  155.0467 Cl      1  UNL1       -0.0822
     19 C         142.7019  133.2339  156.5589 C.ar    1  UNL1        0.0115
     20 C         143.2362  134.6033  156.8581 C.ar    1  UNL1        0.0054
     21 C         138.5459  142.9024  161.0901 C.3     1  UNL1        0.0992
     22 C         139.7705  142.2630  164.8105 C.ar    1  UNL1        0.1452
     23 C         139.5346  143.6120  165.4224 C.ar    1  UNL1        0.0375
     24 C         138.9691  144.7245  164.5901 C.ar    1  UNL1        0.0029
     25 C         138.6395  144.4880  163.1461 C.ar    1  UNL1       -0.0027
     26 C         138.8754  143.1389  162.5341 C.ar    1  UNL1       -0.0031
     27 C         139.4409  142.0264  163.3663 C.ar    1  UNL1        0.0346
     28 O         140.3359  141.1505  165.6427 O.3     1  UNL1       -0.4504
     29 C         139.9531  138.7222  164.8019 C.ar    1  UNL1        0.1730
     30 C         139.2264  137.4135  164.8980 C.ar    1  UNL1        0.0401
     31 C         138.1555  137.2245  165.9313 C.ar    1  UNL1        0.0033
     32 C         137.8115  138.3441  166.8684 C.ar    1  UNL1        0.0033
     33 C         138.5383  139.6528  166.7722 C.ar    1  UNL1        0.0406
     34 C         139.6091  139.8418  165.7389 C.ar    1  UNL1        0.1789
     35 C         141.0394  138.0526  162.5387 C.3     1  UNL1        0.2526
     36 O         141.0240  138.9112  163.7686 O.3     1  UNL1       -0.4684
@<TRIPOS>BOND
     1    35    36    1
     2    36    29    1
     3    29    30   ar
     4    30    31   ar
     5    31    32   ar
     6    32    33   ar
     7    33    34   ar
     8    34    28    1
     9    28    22    1
    10    22    23   ar
    11    23    24   ar
    12    24    25   ar
    13    25    26   ar
    14    26    21    1
    15    21     1    1
    16     1     2    1
    17     2     3    1
    18     3     4    1
    19     4     5    1
    20     5     6    1
    21     4     7    1
    22     7     8    1
    23     8     9    1
    24     9    10   am
    25    10    11    2
    26    10    14    1
    27    14    15   ar
    28    15    16   ar
    29    16    17   ar
    30    17    18    1
    31    17    19   ar
    32    19    20   ar
    33     9    12    1
    34    12    13    1
    35    26    27   ar
    36    34    29   ar
    37    27    22   ar
    38     6     1    1
    39    20    14   ar
    40    13     4    1
@<TRIPOS>MOLECULE
*****
 36 40 0 0 0
SMALL
GASTEIGER

@<TRIPOS>ATOM
      1 N         139.5335  141.9105  160.3251 N.3     1  UNL1       -0.2690
      2 C         139.0300  140.5155  160.1007 C.3     1  UNL1        0.0724
      3 C         139.8313  139.5525  159.2758 C.3     1  UNL1        0.0175
      4 C         141.1362  139.9846  158.6752 C.3     1  UNL1        0.0060
      5 C         141.6397  141.3796  158.8996 C.3     1  UNL1        0.0175
      6 C         140.8383  142.3426  159.7246 C.3     1  UNL1        0.0724
      7 C         140.6327  138.5895  158.4508 C.3     1  UNL1        0.0217
      8 C         141.4341  137.6266  157.6259 C.3     1  UNL1        0.0937
      9 N         142.7389  138.0587  157.0253 N.am    1  UNL1       -0.2761
     10 C         143.5403  137.0957  156.2003 C.2     1  UNL1        0.2490
     11 O         144.8451  137.5278  155.5998 O.2     1  UNL1       -0.2699
     12 C         143.2424  139.4537  157.2497 C.3     1  UNL1        0.0937
     13 C         142.4410  140.4167  158.0747 C.3     1  UNL1        0.0217
     14 C         143.0368  135.7007  155.9759 C.ar    1  UNL1        0.0536
     15 C         142.1486  135.4033  154.8043 C.ar    1  UNL1        0.0054
     16 C         141.6451  134.0083  154.5799 C.ar    1  UNL1        0.0115
     17 C         142.0298  132.9106  155.5272 C.ar    1  UNL1        0.0577
     18 CL        141.5263  131.5156  155.3028 Cl      1  UNL1       -0.0822
     19 C         142.9180  133.2080  156.6988 C.ar    1  UNL1        0.0115
     20 C         143.4215  134.6031  156.9232 C.ar    1  UNL1        0.0054
     21 C         138.7321  142.8735  161.1501 C.3     1  UNL1        0.0992
     22 C         140.4262  142.4307  164.7116 C.ar    1  UNL1        0.1452
     23 C         139.7893  143.5570  165.4704 C.ar    1  UNL1        0.0375
     24 C         138.8000  144.4554  164.7891 C.ar    1  UNL1        0.0029
     25 C         138.4476  144.2276  163.3491 C.ar    1  UNL1       -0.0027
     26 C         139.0845  143.1013  162.5902 C.ar    1  UNL1       -0.0031
     27 C         140.0738  142.2028  163.2714 C.ar    1  UNL1        0.0346
     28 O         141.4154  141.5323  165.3929 O.3     1  UNL1       -0.4504
     29 C         143.4568  140.1422  164.5862 C.ar    1  UNL1        0.1730
     30 C         144.8732  140.0784  164.0966 C.ar    1  UNL1        0.0401
     31 C         145.6647  141.3409  163.9240 C.ar    1  UNL1        0.0033
     32 C         145.0398  142.6672  164.2411 C.ar    1  UNL1        0.0033
     33 C         143.6234  142.7309  164.7308 C.ar    1  UNL1        0.0406
     34 C         142.8319  141.4685  164.9032 C.ar    1  UNL1        0.1789
     35 C         142.1027  138.1774  163.5586 C.3     1  UNL1        0.2526
     36 O         142.6653  138.8798  164.7587 O.3     1  UNL1       -0.4684
@<TRIPOS>BOND
     1    35    36    1
     2    36    29    1
     3    29    30   ar
     4    30    31   ar
     5    31    32   ar
     6    32    33   ar
     7    33    34   ar
     8    34    28    1
     9    28    22    1
    10    22    23   ar
    11    23    24   ar
    12    24    25   ar
    13    25    26   ar
    14    26    21    1
    15    21     1    1
    16     1     2    1
    17     2     3    1
    18     3     4    1
    19     4     5    1
    20     5     6    1
    21     4     7    1
    22     7     8    1
    23     8     9    1
    24     9    10   am
    25    10    11    2
    26    10    14    1
    27    14    15   ar
    28    15    16   ar
    29    16    17   ar
    30    17    18    1
    31    17    19   ar
    32    19    20   ar
    33     9    12    1
    34    12    13    1
    35    26    27   ar
    36    34    29   ar
    37    27    22   ar
    38     6     1    1
    39    20    14   ar
    40    13     4    1
@<TRIPOS>MOLECULE
*****
 36 40 0 0 0
SMALL
GASTEIGER

@<TRIPOS>ATOM
      1 N         143.5118  139.6963  163.8266 N.3     1  UNL1       -0.2690
      2 C         143.0685  138.3698  163.2847 C.3     1  UNL1        0.0724
      3 C         142.9832  138.1559  161.8025 C.3     1  UNL1        0.0175
      4 C         143.3412  139.2685  160.8623 C.3     1  UNL1        0.0060
      5 C         143.7844  140.5950  161.4042 C.3     1  UNL1        0.0175
      6 C         143.8697  140.8089  162.8864 C.3     1  UNL1        0.0724
      7 C         142.8979  137.9419  160.3202 C.3     1  UNL1        0.0217
      8 C         142.8126  137.7279  158.8380 C.3     1  UNL1        0.0937
      9 N         143.1706  138.8405  157.8978 N.am    1  UNL1       -0.2761
     10 C         143.0853  138.6265  156.4156 C.2     1  UNL1        0.2490
     11 O         143.4432  139.7391  155.4754 O.2     1  UNL1       -0.2699
     12 C         143.6138  140.1670  158.4398 C.3     1  UNL1        0.0937
     13 C         143.6991  140.3810  159.9221 C.3     1  UNL1        0.0217
     14 C         142.6420  137.3000  155.8736 C.ar    1  UNL1        0.0536
     15 C         141.1895  137.0518  155.5933 C.ar    1  UNL1        0.0054
     16 C         140.7462  135.7253  155.0513 C.ar    1  UNL1        0.0115
     17 C         141.7555  134.6468  154.7896 C.ar    1  UNL1        0.0577
     18 CL        141.3122  133.3203  154.2477 Cl      1  UNL1       -0.0822
     19 C         143.2080  134.8950  155.0700 C.ar    1  UNL1        0.0115
     20 C         143.6513  136.2216  155.6120 C.ar    1  UNL1        0.0054
     21 C         143.5971  139.9103  165.3089 C.3     1  UNL1        0.0992
     22 C         139.8129  140.6221  166.2699 C.ar    1  UNL1        0.1452
     23 C         139.8349  140.3328  167.7415 C.ar    1  UNL1        0.0375
     24 C         141.1110  139.9026  168.4023 C.ar    1  UNL1        0.0029
     25 C         142.3650  139.7618  167.5914 C.ar    1  UNL1       -0.0027
     26 C         142.3431  140.0511  166.1197 C.ar    1  UNL1       -0.0031
     27 C         141.0670  140.4813  165.4589 C.ar    1  UNL1        0.0346
     28 O         138.5368  141.0523  165.6091 O.3     1  UNL1       -0.4504
     29 C         137.8586  142.2268  163.3931 C.ar    1  UNL1        0.1730
     30 C         137.8392  143.4491  162.5238 C.ar    1  UNL1        0.0401
     31 C         138.4785  144.7193  163.0013 C.ar    1  UNL1        0.0033
     32 C         139.1373  144.7671  164.3481 C.ar    1  UNL1        0.0033
     33 C         139.1567  143.5447  165.2173 C.ar    1  UNL1        0.0406
     34 C         138.5174  142.2746  164.7398 C.ar    1  UNL1        0.1789
     35 C         138.0748  139.8036  162.4812 C.3     1  UNL1        0.2526
     36 O         137.2193  140.9566  162.9156 O.3     1  UNL1       -0.4684
@<TRIPOS>BOND
     1    35    36    1
     2    36    29    1
     3    29    30   ar
     4    30    31   ar
     5    31    32   ar
     6    32    33   ar
     7    33    34   ar
     8    34    28    1
     9    28    22    1
    10    22    23   ar
    11    23    24   ar
    12    24    25   ar
    13    25    26   ar
    14    26    21    1
    15    21     1    1
    16     1     2    1
    17     2     3    1
    18     3     4    1
    19     4     5    1
    20     5     6    1
    21     4     7    1
    22     7     8    1
    23     8     9    1
    24     9    10   am
    25    10    11    2
    26    10    14    1
    27    14    15   ar
    28    15    16   ar
    29    16    17   ar
    30    17    18    1
    31    17    19   ar
    32    19    20   ar
    33     9    12    1
    34    12    13    1
    35    26    27   ar
    36    34    29   ar
    37    27    22   ar
    38     6     1    1
    39    20    14   ar
    40    13     4    1
@<TRIPOS>MOLECULE
*****
 36 40 0 0 0
SMALL
GASTEIGER

@<TRIPOS>ATOM
      1 N         139.6653  138.6238  160.8826 N.3     1  UNL1       -0.2690
      2 C         140.7339  139.4749  161.5020 C.3     1  UNL1        0.0724
      3 C         140.7076  139.7577  162.9749 C.3     1  UNL1        0.0175
      4 C         139.6128  139.1893  163.8283 C.3     1  UNL1        0.0060
      5 C         138.5442  138.3381  163.2089 C.3     1  UNL1        0.0175
      6 C         138.5705  138.0554  161.7360 C.3     1  UNL1        0.0724
      7 C         140.6814  140.0404  164.4478 C.3     1  UNL1        0.0217
      8 C         140.6551  140.3231  165.9207 C.3     1  UNL1        0.0937
      9 N         139.5603  139.7547  166.7741 N.am    1  UNL1       -0.2761
     10 C         139.5341  140.0375  168.2470 C.2     1  UNL1        0.2490
     11 O         138.4393  139.4691  169.1004 O.2     1  UNL1       -0.2699
     12 C         138.4918  138.9036  166.1546 C.3     1  UNL1        0.0937
     13 C         138.5180  138.6209  164.6817 C.3     1  UNL1        0.0217
     14 C         140.6026  140.8886  168.8664 C.ar    1  UNL1        0.0536
     15 C         140.3617  142.3527  169.0865 C.ar    1  UNL1        0.0054
     16 C         141.4303  143.2038  169.7059 C.ar    1  UNL1        0.0115
     17 C         142.7398  142.5909  170.1054 C.ar    1  UNL1        0.0577
     18 CL        143.8084  143.4420  170.7248 Cl      1  UNL1       -0.0822
     19 C         142.9807  141.1268  169.8853 C.ar    1  UNL1        0.0115
     20 C         141.9121  140.2756  169.2659 C.ar    1  UNL1        0.0054
     21 C         139.6915  138.3411  159.4097 C.3     1  UNL1        0.0992
     22 C         142.9119  138.1967  157.0949 C.ar    1  UNL1        0.1452
     23 C         143.2068  139.6579  156.9280 C.ar    1  UNL1        0.0375
     24 C         142.3299  140.6802  157.5883 C.ar    1  UNL1        0.0029
     25 C         141.1582  140.2413  158.4156 C.ar    1  UNL1       -0.0027
     26 C         140.8633  138.7800  158.5825 C.ar    1  UNL1       -0.0031
     27 C         141.7401  137.7577  157.9221 C.ar    1  UNL1        0.0346
     28 O         143.7888  137.1744  156.4346 O.3     1  UNL1       -0.4504
     29 C         143.1410  134.6635  156.2743 C.ar    1  UNL1        0.1730
     30 C         142.5256  133.5267  155.5135 C.ar    1  UNL1        0.0401
     31 C         141.9426  133.7639  154.1519 C.ar    1  UNL1        0.0033
     32 C         141.9751  135.1380  153.5512 C.ar    1  UNL1        0.0033
     33 C         142.5905  136.2748  154.3121 C.ar    1  UNL1        0.0406
     34 C         143.1734  136.0376  155.6736 C.ar    1  UNL1        0.1789
     35 C         144.4919  133.1682  157.9142 C.3     1  UNL1        0.2526
     36 O         143.7240  134.4263  157.6360 O.3     1  UNL1       -0.4684
@<TRIPOS>BOND
     1    35    36    1
     2    36    29    1
     3    29    30   ar
     4    30    31   ar
     5    31    32   ar
     6    32    33   ar
     7    33    34   ar
     8    34    28    1
     9    28    22    1
    10    22    23   ar
    11    23    24   ar
    12    24    25   ar
    13    25    26   ar
    14    26    21    1
    15    21     1    1
    16     1     2    1
    17     2     3    1
    18     3     4    1
    19     4     5    1
    20     5     6    1
    21     4     7    1
    22     7     8    1
    23     8     9    1
    24     9    10   am
    25    10    11    2
    26    10    14    1
    27    14    15   ar
    28    15    16   ar
    29    16    17   ar
    30    17    18    1
    31    17    19   ar
    32    19    20   ar
    33     9    12    1
    34    12    13    1
    35    26    27   ar
    36    34    29   ar
    37    27    22   ar
    38     6     1    1
    39    20    14   ar
    40    13     4    1
@<TRIPOS>MOLECULE
*****
 36 40 0 0 0
SMALL
GASTEIGER

@<TRIPOS>ATOM
      1 N         143.5921  142.1151  164.0767 N.3     1  UNL1       -0.2690
      2 C         144.1418  143.1862  163.1821 C.3     1  UNL1        0.0724
      3 C         144.3777  142.9012  161.7285 C.3     1  UNL1        0.0175
      4 C         144.0639  141.5451  161.1695 C.3     1  UNL1        0.0060
      5 C         143.5142  140.4740  162.0641 C.3     1  UNL1        0.0175
      6 C         143.2783  140.7589  163.5177 C.3     1  UNL1        0.0724
      7 C         144.6137  142.6163  160.2748 C.3     1  UNL1        0.0217
      8 C         144.8496  142.3313  158.8211 C.3     1  UNL1        0.0937
      9 N         144.5358  140.9751  158.2621 N.am    1  UNL1       -0.2761
     10 C         144.7718  140.6902  156.8084 C.2     1  UNL1        0.2490
     11 O         144.4580  139.3341  156.2494 O.2     1  UNL1       -0.2699
     12 C         143.9861  139.9040  159.1568 C.3     1  UNL1        0.0937
     13 C         143.7501  140.1890  160.6105 C.3     1  UNL1        0.0217
     14 C         145.3215  141.7613  155.9138 C.ar    1  UNL1        0.0536
     15 C         146.8015  141.9962  155.8469 C.ar    1  UNL1        0.0054
     16 C         147.3512  143.0673  154.9523 C.ar    1  UNL1        0.0115
     17 C         146.4209  143.9037  154.1245 C.ar    1  UNL1        0.0577
     18 CL        146.9707  144.9748  153.2298 Cl      1  UNL1       -0.0822
     19 C         144.9409  143.6688  154.1913 C.ar    1  UNL1        0.0115
     20 C         144.3912  142.5976  155.0860 C.ar    1  UNL1        0.0054
     21 C         143.3561  142.4000  165.5304 C.3     1  UNL1        0.0992
     22 C         139.6889  141.0310  166.1844 C.ar    1  UNL1        0.1452
     23 C         139.7925  140.6189  167.6229 C.ar    1  UNL1        0.0375
     24 C         141.0840  140.8004  168.3640 C.ar    1  UNL1        0.0029
     25 C         142.2719  141.3941  167.6665 C.ar    1  UNL1       -0.0027
     26 C         142.1683  141.8063  166.2279 C.ar    1  UNL1       -0.0031
     27 C         140.8768  141.6248  165.4869 C.ar    1  UNL1        0.0346
     28 O         138.3974  140.8495  165.4434 O.3     1  UNL1       -0.4504
     29 C         137.7384  140.4641  162.9600 C.ar    1  UNL1        0.1730
     30 C         137.6848  139.5750  161.7532 C.ar    1  UNL1        0.0401
     31 C         138.2365  138.1818  161.8229 C.ar    1  UNL1        0.0033
     32 C         138.8420  137.6779  163.0994 C.ar    1  UNL1        0.0033
     33 C         138.8956  138.5672  164.3063 C.ar    1  UNL1        0.0406
     34 C         138.3438  139.9602  164.2366 C.ar    1  UNL1        0.1789
     35 C         137.9147  142.9144  162.1142 C.3     1  UNL1        0.2526
     36 O         137.1866  141.8573  162.8903 O.3     1  UNL1       -0.4684
@<TRIPOS>BOND
     1    35    36    1
     2    36    29    1
     3    29    30   ar
     4    30    31   ar
     5    31    32   ar
     6    32    33   ar
     7    33    34   ar
     8    34    28    1
     9    28    22    1
    10    22    23   ar
    11    23    24   ar
    12    24    25   ar
    13    25    26   ar
    14    26    21    1
    15    21     1    1
    16     1     2    1
    17     2     3    1
    18     3     4    1
    19     4     5    1
    20     5     6    1
    21     4     7    1
    22     7     8    1
    23     8     9    1
    24     9    10   am
    25    10    11    2
    26    10    14    1
    27    14    15   ar
    28    15    16   ar
    29    16    17   ar
    30    17    18    1
    31    17    19   ar
    32    19    20   ar
    33     9    12    1
    34    12    13    1
    35    26    27   ar
    36    34    29   ar
    37    27    22   ar
    38     6     1    1
    39    20    14   ar
    40    13     4    1
@<TRIPOS>MOLECULE
*****
 36 40 0 0 0
SMALL
GASTEIGER

@<TRIPOS>ATOM
      1 N         138.2482  140.1727  163.9750 N.3     1  UNL1       -0.2690
      2 C         138.3092  141.6072  163.5409 C.3     1  UNL1        0.0724
      3 C         138.3909  141.9464  162.0820 C.3     1  UNL1        0.0175
      4 C         138.4116  140.8512  161.0573 C.3     1  UNL1        0.0060
      5 C         138.3505  139.4167  161.4914 C.3     1  UNL1        0.0175
      6 C         138.2689  139.0775  162.9502 C.3     1  UNL1        0.0724
      7 C         138.4726  142.2857  160.6232 C.3     1  UNL1        0.0217
      8 C         138.5543  142.6250  159.1643 C.3     1  UNL1        0.0937
      9 N         138.5749  141.5298  158.1396 N.am    1  UNL1       -0.2761
     10 C         138.6566  141.8691  156.6807 C.2     1  UNL1        0.2490
     11 O         138.6772  140.7739  155.6560 O.2     1  UNL1       -0.2699
     12 C         138.5139  140.0953  158.5737 C.3     1  UNL1        0.0937
     13 C         138.4322  139.7560  160.0326 C.3     1  UNL1        0.0217
     14 C         138.7176  143.3036  156.2466 C.ar    1  UNL1        0.0536
     15 C         137.5702  143.9087  155.4935 C.ar    1  UNL1        0.0054
     16 C         137.6312  145.3432  155.0594 C.ar    1  UNL1        0.0115
     17 C         138.8397  146.1726  155.3784 C.ar    1  UNL1        0.0577
     18 CL        138.9007  147.6071  154.9444 Cl      1  UNL1       -0.0822
     19 C         139.9871  145.5675  156.1316 C.ar    1  UNL1        0.0115
     20 C         139.9260  144.1329  156.5657 C.ar    1  UNL1        0.0054
     21 C         138.1665  139.8334  165.4338 C.3     1  UNL1        0.0992
     22 C         141.9946  139.7536  166.4779 C.ar    1  UNL1        0.1452
     23 C         141.8848  139.8865  167.9679 C.ar    1  UNL1        0.0375
     24 C         140.5356  140.0017  168.6133 C.ar    1  UNL1        0.0029
     25 C         139.2962  139.9840  167.7686 C.ar    1  UNL1       -0.0027
     26 C         139.4059  139.8511  166.2785 C.ar    1  UNL1       -0.0031
     27 C         140.7551  139.7359  165.6331 C.ar    1  UNL1        0.0346
     28 O         143.3437  139.6385  165.8325 O.3     1  UNL1       -0.4504
     29 C         144.3266  140.3653  163.5400 C.ar    1  UNL1        0.1730
     30 C         144.8114  141.4444  162.6178 C.ar    1  UNL1        0.0401
     31 C         144.7982  142.8759  163.0659 C.ar    1  UNL1        0.0033
     32 C         144.3002  143.2282  164.4363 C.ar    1  UNL1        0.0033
     33 C         143.8153  142.1490  165.3585 C.ar    1  UNL1        0.0406
     34 C         143.8286  140.7177  164.9103 C.ar    1  UNL1        0.1789
     35 C         143.0729  138.2839  162.6202 C.3     1  UNL1        0.2526
     36 O         144.3398  138.9339  163.0919 O.3     1  UNL1       -0.4684
@<TRIPOS>BOND
     1    35    36    1
     2    36    29    1
     3    29    30   ar
     4    30    31   ar
     5    31    32   ar
     6    32    33   ar
     7    33    34   ar
     8    34    28    1
     9    28    22    1
    10    22    23   ar
    11    23    24   ar
    12    24    25   ar
    13    25    26   ar
    14    26    21    1
    15    21     1    1
    16     1     2    1
    17     2     3    1
    18     3     4    1
    19     4     5    1
    20     5     6    1
    21     4     7    1
    22     7     8    1
    23     8     9    1
    24     9    10   am
    25    10    11    2
    26    10    14    1
    27    14    15   ar
    28    15    16   ar
    29    16    17   ar
    30    17    18    1
    31    17    19   ar
    32    19    20   ar
    33     9    12    1
    34    12    13    1
    35    26    27   ar
    36    34    29   ar
    37    27    22   ar
    38     6     1    1
    39    20    14   ar
    40    13     4    1
