@<TRIPOS>MOLECULE
*****
 27 29 0 0 0
SMALL
GASTEIGER

@<TRIPOS>ATOM
      1 N         141.4565  141.7395  165.5444 N.3     1  UNL1       -0.1466
      2 C         141.4347  142.7668  166.6372 C.3     1  UNL1        0.1222
      3 C         140.6885  142.1881  167.8027 C.ar    1  UNL1       -0.0071
      4 C         140.3524  142.7433  169.1549 C.ar    1  UNL1       -0.0031
      5 C         139.5769  141.9135  170.1347 C.ar    1  UNL1       -0.0003
      6 C         139.1375  140.5286  169.7622 C.ar    1  UNL1       -0.0001
      7 C         139.4736  139.9733  168.4099 C.ar    1  UNL1       -0.0031
      8 C         140.2491  140.8031  167.4301 C.ar    1  UNL1       -0.0071
      9 C         140.7238  140.5259  166.0345 C.3     1  UNL1        0.1222
     10 S         142.0984  141.8981  164.1980 S.O2    1  UNL1        0.0636
     11 O         142.4238  140.4339  164.1807 O.2     1  UNL1       -0.1528
     12 O         141.7730  143.3622  164.2152 O.2     1  UNL1       -0.1528
     13 C         145.0566  142.3518  163.9905 C.3     1  UNL1        0.0324
     14 C         144.2193  142.2834  162.7477 C.ar    1  UNL1       -0.0032
     15 C         144.8611  142.4419  161.4013 C.ar    1  UNL1       -0.0029
     16 C         144.0239  142.3736  160.1586 C.ar    1  UNL1       -0.0002
     17 C         142.5448  142.1467  160.2624 C.ar    1  UNL1        0.0013
     18 C         141.9030  141.9882  161.6088 C.ar    1  UNL1        0.0196
     19 C         142.7402  142.0566  162.8515 C.ar    1  UNL1        0.1182
     20 C         138.3619  139.6988  170.7421 C.2     1  UNL1        0.0047
     21 C         137.0461  139.1002  170.3418 C.2     1  UNL1        0.0598
     22 C         136.2705  138.2705  171.3217 C.2     1  UNL1        0.2679
     23 O         136.5274  136.7962  171.4247 O.2     1  UNL1       -0.2681
     24 N         135.2380  138.9149  172.1984 N.am    1  UNL1       -0.1934
     25 O         134.4625  138.0852  173.1782 O.3     1  UNL1       -0.2949
     26 H         135.0694  139.8825  172.1308 H       1  UNL1        0.1825
     27 H         134.7493  137.1605  173.1170 H       1  UNL1        0.2414
@<TRIPOS>BOND
     1    13    14    1
     2    14    15   ar
     3    15    16   ar
     4    16    17   ar
     5    17    18   ar
     6    18    19   ar
     7    19    10    1
     8    10    11    2
     9    10    12    2
    10    10     1    1
    11     1     2    1
    12     2     3    1
    13     3     4   ar
    14     4     5   ar
    15     5     6   ar
    16     6    20    1
    17    20    21    2
    18    21    22    1
    19    22    23    2
    20    22    24   am
    21    24    25    1
    22     6     7   ar
    23     7     8   ar
    24     8     9    1
    25    19    14   ar
    26     9     1    1
    27     8     3   ar
    28    24    26    1
    29    25    27    1
@<TRIPOS>MOLECULE
*****
 27 29 0 0 0
SMALL
GASTEIGER

@<TRIPOS>ATOM
      1 N         139.2428  141.7365  161.5915 N.3     1  UNL1       -0.1466
      2 C         139.0552  140.2486  161.6201 C.3     1  UNL1        0.1222
      3 C         138.9586  139.8211  163.0547 C.ar    1  UNL1       -0.0071
      4 C         138.7707  138.4756  163.6905 C.ar    1  UNL1       -0.0031
      5 C         138.7108  138.3538  165.1843 C.ar    1  UNL1       -0.0003
      6 C         138.8387  139.5776  166.0423 C.ar    1  UNL1       -0.0001
      7 C         139.0266  140.9230  165.4065 C.ar    1  UNL1       -0.0031
      8 C         139.0866  141.0448  163.9126 C.ar    1  UNL1       -0.0071
      9 C         139.2622  142.2286  163.0083 C.3     1  UNL1        0.1222
     10 S         139.3859  142.5837  160.3619 S.O2    1  UNL1        0.0636
     11 O         138.0701  143.2391  160.6603 O.2     1  UNL1       -0.1528
     12 O         140.7017  141.9282  160.0635 O.2     1  UNL1       -0.1528
     13 C         140.7275  145.2615  160.5331 C.3     1  UNL1        0.0324
     14 C         140.1998  144.7697  159.2178 C.ar    1  UNL1       -0.0032
     15 C         140.3429  145.6168  157.9883 C.ar    1  UNL1       -0.0029
     16 C         139.8152  145.1250  156.6731 C.ar    1  UNL1       -0.0002
     17 C         139.1444  143.7861  156.5876 C.ar    1  UNL1        0.0013
     18 C         139.0013  142.9390  157.8171 C.ar    1  UNL1        0.0196
     19 C         139.5290  143.4308  159.1323 C.ar    1  UNL1        0.1182
     20 C         138.7788  139.4558  167.5362 C.2     1  UNL1        0.0047
     21 C         139.5818  140.3851  168.3973 C.2     1  UNL1        0.0598
     22 C         139.5218  140.2633  169.8912 C.2     1  UNL1        0.2679
     23 O         138.2527  139.8209  170.5572 O.2     1  UNL1       -0.2681
     24 N         140.7310  140.5838  170.7189 N.am    1  UNL1       -0.1934
     25 O         140.6710  140.4620  172.2127 O.3     1  UNL1       -0.2949
     26 H         141.5639  140.8741  170.2818 H       1  UNL1        0.1825
     27 H         139.7857  140.1672  172.4778 H       1  UNL1        0.2414
@<TRIPOS>BOND
     1    13    14    1
     2    14    15   ar
     3    15    16   ar
     4    16    17   ar
     5    17    18   ar
     6    18    19   ar
     7    19    10    1
     8    10    11    2
     9    10    12    2
    10    10     1    1
    11     1     2    1
    12     2     3    1
    13     3     4   ar
    14     4     5   ar
    15     5     6   ar
    16     6    20    1
    17    20    21    2
    18    21    22    1
    19    22    23    2
    20    22    24   am
    21    24    25    1
    22     6     7   ar
    23     7     8   ar
    24     8     9    1
    25    19    14   ar
    26     9     1    1
    27     8     3   ar
    28    24    26    1
    29    25    27    1
@<TRIPOS>MOLECULE
*****
 27 29 0 0 0
SMALL
GASTEIGER

@<TRIPOS>ATOM
      1 N         139.1408  141.6430  162.6212 N.3     1  UNL1       -0.1466
      2 C         138.2573  140.5189  163.0750 C.3     1  UNL1        0.1222
      3 C         138.5501  140.2543  164.5221 C.ar    1  UNL1       -0.0071
      4 C         137.9850  139.2629  165.4956 C.ar    1  UNL1       -0.0031
      5 C         138.4843  139.2320  166.9096 C.ar    1  UNL1       -0.0003
      6 C         139.5487  140.1927  167.3503 C.ar    1  UNL1       -0.0001
      7 C         140.1139  141.1841  166.3769 C.ar    1  UNL1       -0.0031
      8 C         139.6145  141.2150  164.9628 C.ar    1  UNL1       -0.0071
      9 C         139.9796  142.0731  163.7879 C.3     1  UNL1        0.1222
     10 S         139.1787  142.2332  161.2427 S.O2    1  UNL1        0.0636
     11 O         137.9853  143.0800  161.5724 O.2     1  UNL1       -0.1528
     12 O         140.3722  141.3864  160.9130 O.2     1  UNL1       -0.1528
     13 C         140.9123  144.6157  160.6784 C.3     1  UNL1        0.0324
     14 C         140.0835  144.0147  159.5821 C.ar    1  UNL1       -0.0032
     15 C         140.1215  144.6049  158.2036 C.ar    1  UNL1       -0.0029
     16 C         139.2927  144.0039  157.1073 C.ar    1  UNL1       -0.0002
     17 C         138.4259  142.8127  157.3895 C.ar    1  UNL1        0.0013
     18 C         138.3880  142.2225  158.7679 C.ar    1  UNL1        0.0196
     19 C         139.2167  142.8234  159.8642 C.ar    1  UNL1        0.1182
     20 C         140.0481  140.1618  168.7645 C.2     1  UNL1        0.0047
     21 C         140.5139  141.4263  169.4231 C.2     1  UNL1        0.0598
     22 C         141.0132  141.3954  170.8373 C.2     1  UNL1        0.2679
     23 O         140.3313  142.2161  171.8915 O.2     1  UNL1       -0.2681
     24 N         142.1944  140.5439  171.1972 N.am    1  UNL1       -0.1934
     25 O         142.6937  140.5130  172.6113 O.3     1  UNL1       -0.2949
     26 H         142.6420  140.0052  170.5053 H       1  UNL1        0.1825
     27 H         142.1454  141.0950  173.1605 H       1  UNL1        0.2414
@<TRIPOS>BOND
     1    13    14    1
     2    14    15   ar
     3    15    16   ar
     4    16    17   ar
     5    17    18   ar
     6    18    19   ar
     7    19    10    1
     8    10    11    2
     9    10    12    2
    10    10     1    1
    11     1     2    1
    12     2     3    1
    13     3     4   ar
    14     4     5   ar
    15     5     6   ar
    16     6    20    1
    17    20    21    2
    18    21    22    1
    19    22    23    2
    20    22    24   am
    21    24    25    1
    22     6     7   ar
    23     7     8   ar
    24     8     9    1
    25    19    14   ar
    26     9     1    1
    27     8     3   ar
    28    24    26    1
    29    25    27    1
@<TRIPOS>MOLECULE
*****
 27 29 0 0 0
SMALL
GASTEIGER

@<TRIPOS>ATOM
      1 N         140.3700  144.2733  161.5350 N.3     1  UNL1       -0.1466
      2 C         139.3603  144.9622  162.4044 C.3     1  UNL1        0.1222
      3 C         139.5427  144.4671  163.8085 C.ar    1  UNL1       -0.0071
      4 C         138.8318  144.7937  165.0883 C.ar    1  UNL1       -0.0031
      5 C         139.2433  144.1253  166.3665 C.ar    1  UNL1       -0.0003
      6 C         140.3658  143.1303  166.3649 C.ar    1  UNL1       -0.0001
      7 C         141.0767  142.8037  165.0852 C.ar    1  UNL1       -0.0031
      8 C         140.6652  143.4721  163.8070 C.ar    1  UNL1       -0.0071
      9 C         141.1765  143.3523  162.4019 C.3     1  UNL1        0.1222
     10 S         140.5429  144.4706  160.0581 S.O2    1  UNL1        0.0636
     11 O         141.9107  145.0391  160.2942 O.2     1  UNL1       -0.1528
     12 O         139.1750  143.9021  159.8221 O.2     1  UNL1       -0.1528
     13 C         141.7336  142.2859  158.3821 C.3     1  UNL1        0.0324
     14 C         141.3111  143.5756  157.7433 C.ar    1  UNL1       -0.0032
     15 C         141.4840  143.7730  156.2664 C.ar    1  UNL1       -0.0029
     16 C         141.0615  145.0626  155.6275 C.ar    1  UNL1       -0.0002
     17 C         140.4661  146.1549  156.4655 C.ar    1  UNL1        0.0013
     18 C         140.2932  145.9576  157.9424 C.ar    1  UNL1        0.0196
     19 C         140.7157  144.6679  158.5813 C.ar    1  UNL1        0.1182
     20 C         140.7773  142.4619  167.6432 C.2     1  UNL1        0.0047
     21 C         140.5080  143.1295  168.9591 C.2     1  UNL1        0.0598
     22 C         140.9196  142.4611  170.2374 C.2     1  UNL1        0.2679
     23 O         142.1215  142.9532  170.9879 O.2     1  UNL1       -0.2681
     24 N         140.1292  141.3006  170.7651 N.am    1  UNL1       -0.1934
     25 O         140.5407  140.6323  172.0434 O.3     1  UNL1       -0.2949
     26 H         139.3403  140.9776  170.2726 H       1  UNL1        0.1825
     27 H         141.3307  141.0699  172.3973 H       1  UNL1        0.2414
@<TRIPOS>BOND
     1    13    14    1
     2    14    15   ar
     3    15    16   ar
     4    16    17   ar
     5    17    18   ar
     6    18    19   ar
     7    19    10    1
     8    10    11    2
     9    10    12    2
    10    10     1    1
    11     1     2    1
    12     2     3    1
    13     3     4   ar
    14     4     5   ar
    15     5     6   ar
    16     6    20    1
    17    20    21    2
    18    21    22    1
    19    22    23    2
    20    22    24   am
    21    24    25    1
    22     6     7   ar
    23     7     8   ar
    24     8     9    1
    25    19    14   ar
    26     9     1    1
    27     8     3   ar
    28    24    26    1
    29    25    27    1
@<TRIPOS>MOLECULE
*****
 27 29 0 0 0
SMALL
GASTEIGER

@<TRIPOS>ATOM
      1 N         140.4238  140.7013  165.5184 N.3     1  UNL1       -0.1466
      2 C         139.6054  140.8946  166.7606 C.3     1  UNL1        0.1222
      3 C         140.3757  140.3275  167.9161 C.ar    1  UNL1       -0.0071
      4 C         140.0656  140.2360  169.3808 C.ar    1  UNL1       -0.0031
      5 C         141.0499  139.6007  170.3175 C.ar    1  UNL1       -0.0003
      6 C         142.3444  139.0570  169.7895 C.ar    1  UNL1       -0.0001
      7 C         142.6545  139.1486  168.3248 C.ar    1  UNL1       -0.0031
      8 C         141.6701  139.7838  167.3881 C.ar    1  UNL1       -0.0071
      9 C         141.6999  140.0148  165.9063 C.3     1  UNL1        0.1222
     10 S         140.0345  141.1209  164.1319 S.O2    1  UNL1        0.0636
     11 O         139.1016  139.9500  164.0395 O.2     1  UNL1       -0.1528
     12 O         140.9675  142.2919  164.2244 O.2     1  UNL1       -0.1528
     13 C         137.7229  142.9890  163.7235 C.3     1  UNL1        0.0324
     14 C         138.4895  142.4745  162.5412 C.ar    1  UNL1       -0.0032
     15 C         138.1002  142.8941  161.1547 C.ar    1  UNL1       -0.0029
     16 C         138.8667  142.3798  159.9724 C.ar    1  UNL1       -0.0002
     17 C         140.0225  141.4458  160.1767 C.ar    1  UNL1        0.0013
     18 C         140.4117  141.0262  161.5632 C.ar    1  UNL1        0.0196
     19 C         139.6452  141.5405  162.7454 C.ar    1  UNL1        0.1182
     20 C         143.3288  138.4218  170.7263 C.2     1  UNL1        0.0047
     21 C         143.7307  136.9896  170.5337 C.2     1  UNL1        0.0598
     22 C         144.7151  136.3543  171.4705 C.2     1  UNL1        0.2679
     23 O         145.9893  137.0666  171.8155 O.2     1  UNL1       -0.2681
     24 N         144.4252  135.0068  172.0623 N.am    1  UNL1       -0.1934
     25 O         145.4096  134.3717  172.9990 O.3     1  UNL1       -0.2949
     26 H         143.5889  134.5393  171.8358 H       1  UNL1        0.1825
     27 H         146.1723  134.9598  173.1141 H       1  UNL1        0.2414
@<TRIPOS>BOND
     1    13    14    1
     2    14    15   ar
     3    15    16   ar
     4    16    17   ar
     5    17    18   ar
     6    18    19   ar
     7    19    10    1
     8    10    11    2
     9    10    12    2
    10    10     1    1
    11     1     2    1
    12     2     3    1
    13     3     4   ar
    14     4     5   ar
    15     5     6   ar
    16     6    20    1
    17    20    21    2
    18    21    22    1
    19    22    23    2
    20    22    24   am
    21    24    25    1
    22     6     7   ar
    23     7     8   ar
    24     8     9    1
    25    19    14   ar
    26     9     1    1
    27     8     3   ar
    28    24    26    1
    29    25    27    1
@<TRIPOS>MOLECULE
*****
 27 29 0 0 0
SMALL
GASTEIGER

@<TRIPOS>ATOM
      1 N         141.4782  143.9153  161.3333 N.3     1  UNL1       -0.1466
      2 C         142.9083  144.0047  161.7767 C.3     1  UNL1        0.1222
      3 C         142.9785  143.5612  163.2080 C.ar    1  UNL1       -0.0071
      4 C         144.1260  143.4415  164.1665 C.ar    1  UNL1       -0.0031
      5 C         143.8867  142.9583  165.5662 C.ar    1  UNL1       -0.0003
      6 C         142.4999  142.5948  166.0074 C.ar    1  UNL1       -0.0001
      7 C         141.3524  142.7146  165.0488 C.ar    1  UNL1       -0.0031
      8 C         141.5917  143.1978  163.6491 C.ar    1  UNL1       -0.0071
      9 C         140.6645  143.4166  162.4905 C.3     1  UNL1        0.1222
     10 S         140.9538  144.2634  159.9718 S.O2    1  UNL1        0.0636
     11 O         142.3478  144.2081  159.4207 O.2     1  UNL1       -0.1528
     12 O         139.5598  144.3187  160.5228 O.2     1  UNL1       -0.1528
     13 C         139.9648  142.0978  158.1464 C.3     1  UNL1        0.0324
     14 C         139.9349  143.5288  157.6975 C.ar    1  UNL1       -0.0032
     15 C         139.4106  143.8769  156.3360 C.ar    1  UNL1       -0.0029
     16 C         139.3807  145.3078  155.8871 C.ar    1  UNL1       -0.0002
     17 C         139.8751  146.3906  156.7998 C.ar    1  UNL1        0.0013
     18 C         140.3995  146.0425  158.1613 C.ar    1  UNL1        0.0196
     19 C         140.4294  144.6116  158.6102 C.ar    1  UNL1        0.1182
     20 C         142.2606  142.1116  167.4071 C.2     1  UNL1        0.0047
     21 C         143.3033  142.3275  168.4636 C.2     1  UNL1        0.0598
     22 C         143.0641  141.8442  169.8634 C.2     1  UNL1        0.2679
     23 O         143.4026  140.4316  170.2373 O.2     1  UNL1       -0.2681
     24 N         142.4863  142.7736  170.8892 N.am    1  UNL1       -0.1934
     25 O         142.2470  142.2904  172.2889 O.3     1  UNL1       -0.2949
     26 H         142.2641  143.7008  170.6438 H       1  UNL1        0.1825
     27 H         142.5180  141.3618  172.3611 H       1  UNL1        0.2414
@<TRIPOS>BOND
     1    13    14    1
     2    14    15   ar
     3    15    16   ar
     4    16    17   ar
     5    17    18   ar
     6    18    19   ar
     7    19    10    1
     8    10    11    2
     9    10    12    2
    10    10     1    1
    11     1     2    1
    12     2     3    1
    13     3     4   ar
    14     4     5   ar
    15     5     6   ar
    16     6    20    1
    17    20    21    2
    18    21    22    1
    19    22    23    2
    20    22    24   am
    21    24    25    1
    22     6     7   ar
    23     7     8   ar
    24     8     9    1
    25    19    14   ar
    26     9     1    1
    27     8     3   ar
    28    24    26    1
    29    25    27    1
@<TRIPOS>MOLECULE
*****
 27 29 0 0 0
SMALL
GASTEIGER

@<TRIPOS>ATOM
      1 N         142.9502  139.3842  161.8749 N.3     1  UNL1       -0.1466
      2 C         142.9793  138.3609  162.9713 C.3     1  UNL1        0.1222
      3 C         142.9006  139.0843  164.2829 C.ar    1  UNL1       -0.0071
      4 C         142.8897  138.5941  165.7005 C.ar    1  UNL1       -0.0031
      5 C         142.8010  139.5743  166.8323 C.ar    1  UNL1       -0.0003
      6 C         142.7233  141.0448  166.5467 C.ar    1  UNL1       -0.0001
      7 C         142.7342  141.5351  165.1291 C.ar    1  UNL1       -0.0031
      8 C         142.8229  140.5548  163.9972 C.ar    1  UNL1       -0.0071
      9 C         142.8535  140.7401  162.5090 C.3     1  UNL1        0.1222
     10 S         143.0077  139.1013  160.4030 S.O2    1  UNL1        0.0636
     11 O         141.5852  139.5551  160.2602 O.2     1  UNL1       -0.1528
     12 O         144.4303  138.6475  160.5458 O.2     1  UNL1       -0.1528
     13 C         143.9516  141.2229  158.5035 C.3     1  UNL1        0.0324
     14 C         143.5372  139.8791  157.9813 C.ar    1  UNL1       -0.0032
     15 C         143.5946  139.5962  156.5093 C.ar    1  UNL1       -0.0029
     16 C         143.1802  138.2525  155.9871 C.ar    1  UNL1       -0.0002
     17 C         142.7083  137.1918  156.9368 C.ar    1  UNL1        0.0013
     18 C         142.6508  137.4747  158.4088 C.ar    1  UNL1        0.0196
     19 C         143.0652  138.8184  158.9310 C.ar    1  UNL1        0.1182
     20 C         142.6346  142.0251  167.6786 C.2     1  UNL1        0.0047
     21 C         142.9299  141.5807  169.0805 C.2     1  UNL1        0.0598
     22 C         142.8413  142.5610  170.2125 C.2     1  UNL1        0.2679
     23 O         141.5824  142.6599  171.0220 O.2     1  UNL1       -0.2681
     24 N         144.0115  143.4422  170.5348 N.am    1  UNL1       -0.1934
     25 O         143.9228  144.4224  171.6667 O.3     1  UNL1       -0.2949
     26 H         144.8377  143.3773  170.0035 H       1  UNL1        0.1825
     27 H         143.0486  144.3583  172.0822 H       1  UNL1        0.2414
@<TRIPOS>BOND
     1    13    14    1
     2    14    15   ar
     3    15    16   ar
     4    16    17   ar
     5    17    18   ar
     6    18    19   ar
     7    19    10    1
     8    10    11    2
     9    10    12    2
    10    10     1    1
    11     1     2    1
    12     2     3    1
    13     3     4   ar
    14     4     5   ar
    15     5     6   ar
    16     6    20    1
    17    20    21    2
    18    21    22    1
    19    22    23    2
    20    22    24   am
    21    24    25    1
    22     6     7   ar
    23     7     8   ar
    24     8     9    1
    25    19    14   ar
    26     9     1    1
    27     8     3   ar
    28    24    26    1
    29    25    27    1
@<TRIPOS>MOLECULE
*****
 27 29 0 0 0
SMALL
GASTEIGER

@<TRIPOS>ATOM
      1 N         140.0011  139.2774  162.5105 N.3     1  UNL1       -0.1466
      2 C         138.9813  138.5936  163.3721 C.3     1  UNL1        0.1222
      3 C         139.1269  139.1198  164.7692 C.ar    1  UNL1       -0.0071
      4 C         138.3923  138.8106  166.0399 C.ar    1  UNL1       -0.0031
      5 C         138.7676  139.5104  167.3124 C.ar    1  UNL1       -0.0003
      6 C         139.8775  140.5194  167.3143 C.ar    1  UNL1       -0.0001
      7 C         140.6121  140.8287  166.0436 C.ar    1  UNL1       -0.0031
      8 C         140.2368  140.1289  164.7711 C.ar    1  UNL1       -0.0071
      9 C         140.7771  140.2262  163.3752 C.3     1  UNL1        0.1222
     10 S         140.2086  139.0519  161.0422 S.O2    1  UNL1        0.0636
     11 O         139.6109  137.6819  161.1681 O.2     1  UNL1       -0.1528
     12 O         140.8064  140.4219  160.9163 O.2     1  UNL1       -0.1528
     13 C         142.7814  137.8655  160.0555 C.3     1  UNL1        0.0324
     14 C         141.7024  138.2332  159.0805 C.ar    1  UNL1       -0.0032
     15 C         141.9099  138.0078  157.6121 C.ar    1  UNL1       -0.0029
     16 C         140.8310  138.3755  156.6370 C.ar    1  UNL1       -0.0002
     17 C         139.5447  138.9687  157.1304 C.ar    1  UNL1        0.0013
     18 C         139.3372  139.1942  158.5987 C.ar    1  UNL1        0.0196
     19 C         140.4161  138.8264  159.5738 C.ar    1  UNL1        0.1182
     20 C         140.2527  141.2192  168.5870 C.2     1  UNL1        0.0047
     21 C         141.1326  142.4332  168.5440 C.2     1  UNL1        0.0598
     22 C         141.5079  143.1330  169.8166 C.2     1  UNL1        0.2679
     23 O         140.4404  143.7133  170.6963 O.2     1  UNL1       -0.2681
     24 N         142.9505  143.2525  170.2095 N.am    1  UNL1       -0.1934
     25 O         143.3257  143.9523  171.4821 O.3     1  UNL1       -0.2949
     26 H         143.6511  142.8717  169.6322 H       1  UNL1        0.1825
     27 H         142.5230  144.2653  171.9278 H       1  UNL1        0.2414
@<TRIPOS>BOND
     1    13    14    1
     2    14    15   ar
     3    15    16   ar
     4    16    17   ar
     5    17    18   ar
     6    18    19   ar
     7    19    10    1
     8    10    11    2
     9    10    12    2
    10    10     1    1
    11     1     2    1
    12     2     3    1
    13     3     4   ar
    14     4     5   ar
    15     5     6   ar
    16     6    20    1
    17    20    21    2
    18    21    22    1
    19    22    23    2
    20    22    24   am
    21    24    25    1
    22     6     7   ar
    23     7     8   ar
    24     8     9    1
    25    19    14   ar
    26     9     1    1
    27     8     3   ar
    28    24    26    1
    29    25    27    1
@<TRIPOS>MOLECULE
*****
 27 29 0 0 0
SMALL
GASTEIGER

@<TRIPOS>ATOM
      1 N         141.8024  139.1500  162.5581 N.3     1  UNL1       -0.1466
      2 C         142.4996  138.3477  163.6164 C.3     1  UNL1        0.1222
      3 C         142.4251  139.1141  164.9036 C.ar    1  UNL1       -0.0071
      4 C         142.9380  138.8149  166.2811 C.ar    1  UNL1       -0.0031
      5 C         142.7076  139.7919  167.3957 C.ar    1  UNL1       -0.0003
      6 C         141.9643  141.0680  167.1329 C.ar    1  UNL1       -0.0001
      7 C         141.4513  141.3671  165.7555 C.ar    1  UNL1       -0.0031
      8 C         141.6817  140.3902  164.6409 C.ar    1  UNL1       -0.0071
      9 C         141.2969  140.4124  163.1912 C.3     1  UNL1        0.1222
     10 S         141.6392  138.7587  161.1192 S.O2    1  UNL1        0.0636
     11 O         142.1044  140.1205  160.6961 O.2     1  UNL1       -0.1528
     12 O         141.1740  137.3969  161.5423 O.2     1  UNL1       -0.1528
     13 C         139.0038  139.1635  159.7441 C.3     1  UNL1        0.0324
     14 C         140.1585  138.5698  158.9928 C.ar    1  UNL1       -0.0032
     15 C         139.9953  138.1785  157.5540 C.ar    1  UNL1       -0.0029
     16 C         141.1499  137.5848  156.8027 C.ar    1  UNL1       -0.0002
     17 C         142.4675  137.3824  157.4902 C.ar    1  UNL1        0.0013
     18 C         142.6307  137.7737  158.9291 C.ar    1  UNL1        0.0196
     19 C         141.4761  138.3674  159.6804 C.ar    1  UNL1        0.1182
     20 C         141.7339  142.0449  168.2477 C.2     1  UNL1        0.0047
     21 C         140.4016  142.0982  168.9349 C.2     1  UNL1        0.0598
     22 C         140.1713  143.0751  170.0496 C.2     1  UNL1        0.2679
     23 O         140.0874  142.5901  171.4666 O.2     1  UNL1       -0.2681
     24 N         140.0248  144.5370  169.7474 N.am    1  UNL1       -0.1934
     25 O         139.7944  145.5139  170.8621 O.3     1  UNL1       -0.2949
     26 H         140.0798  144.8554  168.8174 H       1  UNL1        0.1825
     27 H         139.7668  145.0391  171.7075 H       1  UNL1        0.2414
@<TRIPOS>BOND
     1    13    14    1
     2    14    15   ar
     3    15    16   ar
     4    16    17   ar
     5    17    18   ar
     6    18    19   ar
     7    19    10    1
     8    10    11    2
     9    10    12    2
    10    10     1    1
    11     1     2    1
    12     2     3    1
    13     3     4   ar
    14     4     5   ar
    15     5     6   ar
    16     6    20    1
    17    20    21    2
    18    21    22    1
    19    22    23    2
    20    22    24   am
    21    24    25    1
    22     6     7   ar
    23     7     8   ar
    24     8     9    1
    25    19    14   ar
    26     9     1    1
    27     8     3   ar
    28    24    26    1
    29    25    27    1
