@<TRIPOS>MOLECULE
*****
 45 50 0 0 0
SMALL
GASTEIGER

@<TRIPOS>ATOM
      1 C         137.9023  140.1230  161.8919 C.3     1  UNL1        0.0700
      2 C         137.6463  140.4158  163.3405 C.3     1  UNL1        0.0193
      3 C         137.6434  141.8337  163.8300 C.3     1  UNL1        0.0286
      4 C         137.8966  142.9588  162.8708 C.3     1  UNL1        0.0932
      5 C         138.1527  142.6660  161.4221 C.3     1  UNL1        0.0286
      6 C         138.1555  141.2480  160.9326 C.3     1  UNL1        0.0193
      7 O         137.9081  142.1981  162.5558 O.3     1  UNL1       -0.3572
      8 C         137.9107  140.9160  162.1132 C.3     1  UNL1        0.1562
      9 N         137.9052  138.7051  161.4024 N.3     1  UNL1       -0.2926
     10 H         137.4416  138.1456  162.1182 H       1  UNL1        0.1236
     11 C         139.2038  138.0214  161.0919 C.3     1  UNL1        0.1152
     12 O         145.9203  141.6103  162.7525 O.2     1  UNL1       -0.2707
     13 C         144.8640  140.6043  163.1020 C.2     1  UNL1        0.2718
     14 C         144.9901  139.7887  164.3546 C.3     1  UNL1        0.2898
     15 O         143.9337  138.7828  164.7041 O.3     1  UNL1       -0.4628
     16 C         142.7512  138.5925  163.8010 C.ar    1  UNL1        0.1708
     17 C         141.6948  137.5865  164.1505 C.ar    1  UNL1        0.0411
     18 C         140.5124  137.3962  163.2475 C.ar    1  UNL1        0.0193
     19 C         140.3862  138.2118  161.9949 C.ar    1  UNL1        0.0765
     20 N         141.4426  139.2177  161.6454 N.ar    1  UNL1       -0.2304
     21 C         142.6251  139.4081  162.5485 C.ar    1  UNL1        0.1682
     22 N         143.6815  140.4140  162.1990 N.am    1  UNL1       -0.2639
     23 H         143.5987  140.9493  161.3769 H       1  UNL1        0.1565
     24 C         137.8938  144.3767  163.3602 C.3     1  UNL1        0.0320
     25 C         138.8343  144.7954  164.4511 C.3     1  UNL1        0.0327
     26 C         140.2853  144.4230  164.3744 C.ar    1  UNL1        0.0261
     27 C         141.1965  145.1472  163.4280 C.ar    1  UNL1        0.1566
     28 F         140.6566  146.2437  162.5585 F       1  UNL1       -0.2028
     29 C         142.6474  144.7747  163.3513 C.ar    1  UNL1        0.1281
     30 N         143.1873  143.6782  164.2208 N.ar    1  UNL1       -0.2400
     31 C         142.2762  142.9540  165.1671 C.ar    1  UNL1        0.0990
     32 C         142.8161  141.8575  166.0366 C.ar    1  UNL1        0.0254
     33 C         141.9050  141.1333  166.9829 C.ar    1  UNL1        0.0593
     34 C         140.4540  141.5057  167.0597 C.ar    1  UNL1        0.2249
     35 N         139.9141  142.6023  166.1902 N.ar    1  UNL1       -0.2104
     36 C         140.8252  143.3264  165.2439 C.ar    1  UNL1        0.1002
     37 O         139.5429  140.7816  168.0060 O.3     1  UNL1       -0.4600
     38 C         139.7008  140.9640  169.4864 C.3     1  UNL1        0.2132
     39 C         140.1068  142.2983  170.0386 C.3     1  UNL1        0.1195
     40 C         141.5598  142.6267  170.2143 C.3     1  UNL1        0.2988
     41 F         141.8716  141.1670  170.3630 F       1  UNL1       -0.1982
     42 F         141.2480  144.0863  170.0656 F       1  UNL1       -0.1982
     43 C         143.0128  142.9550  170.3900 C.2     1  UNL1        0.1110
     44 O         144.0611  142.0537  169.8080 O.co2   1  UNL1       -0.5439
     45 O         143.4176  144.1846  171.1479 O.co2   1  UNL1       -0.5439
@<TRIPOS>UNITY_ATOM_ATTR
44 1
charge -1
@<TRIPOS>BOND
     1    12    13    2
     2    13    14    1
     3    14    15    1
     4    15    16    1
     5    16    17   ar
     6    17    18   ar
     7    18    19   ar
     8    19    11    1
     9    11     9    1
    10     9     1    1
    11     1     2    1
    12     2     3    1
    13     3     4    1
    14     4    24    1
    15    24    25    1
    16    25    26    1
    17    26    27   ar
    18    27    28    1
    19    27    29   ar
    20    29    30   ar
    21    30    31   ar
    22    31    32   ar
    23    32    33   ar
    24    33    34   ar
    25    34    37    1
    26    37    38    1
    27    38    39    1
    28    39    40    1
    29    40    41    1
    30    40    42    1
    31    40    43    1
    32    43    44   ar
    33    43    45   ar
    34    34    35   ar
    35    35    36   ar
    36     4     5    1
    37     5     6    1
    38     4     7    1
    39     7     8    1
    40    19    20   ar
    41    20    21   ar
    42    21    22    1
    43    22    13   am
    44    21    16   ar
    45     6     1    1
    46     8     1    1
    47    36    26   ar
    48    36    31   ar
    49     9    10    1
    50    22    23    1
@<TRIPOS>MOLECULE
*****
 45 50 0 0 0
SMALL
GASTEIGER

@<TRIPOS>ATOM
      1 C         144.2780  139.7181  163.8525 C.3     1  UNL1        0.0700
      2 C         143.6873  139.1528  162.5949 C.3     1  UNL1        0.0193
      3 C         142.4117  138.3659  162.6533 C.3     1  UNL1        0.0286
      4 C         141.7266  138.1443  163.9693 C.3     1  UNL1        0.0932
      5 C         142.3173  138.7096  165.2268 C.3     1  UNL1        0.0286
      6 C         143.5931  139.4966  165.1684 C.3     1  UNL1        0.0193
      7 O         142.4237  138.5821  163.9872 O.3     1  UNL1       -0.3572
      8 C         143.5772  139.2936  163.9345 C.3     1  UNL1        0.1562
      9 N         145.5537  140.5050  163.7941 N.3     1  UNL1       -0.2926
     10 H         145.8000  140.7384  164.7560 H       1  UNL1        0.1236
     11 C         145.6117  141.7825  163.0101 C.3     1  UNL1        0.1152
     12 O         139.9841  145.6729  159.2759 O.2     1  UNL1       -0.2707
     13 C         140.6995  145.3262  160.5479 C.2     1  UNL1        0.2718
     14 C         140.2545  145.9294  161.8471 C.3     1  UNL1        0.2898
     15 O         140.9699  145.5827  163.1191 O.3     1  UNL1       -0.4628
     16 C         142.1303  144.6326  163.0919 C.ar    1  UNL1        0.1708
     17 C         142.8457  144.2859  164.3638 C.ar    1  UNL1        0.0411
     18 C         144.0062  143.3359  164.3366 C.ar    1  UNL1        0.0193
     19 C         144.4513  142.7325  163.0374 C.ar    1  UNL1        0.0765
     20 N         143.7358  143.0793  161.7654 N.ar    1  UNL1       -0.2304
     21 C         142.5753  144.0294  161.7927 C.ar    1  UNL1        0.1682
     22 N         141.8599  144.3762  160.5207 N.am    1  UNL1       -0.2639
     23 H         142.1520  143.9802  159.6680 H       1  UNL1        0.1565
     24 C         140.4510  137.3574  164.0276 C.3     1  UNL1        0.0320
     25 C         139.1697  138.0336  164.4165 C.3     1  UNL1        0.0327
     26 C         138.6662  139.2010  163.6205 C.ar    1  UNL1        0.0261
     27 C         137.9672  138.9718  162.3132 C.ar    1  UNL1        0.1566
     28 F         137.7717  137.5752  161.8020 F       1  UNL1       -0.2028
     29 C         137.4636  140.1391  161.5172 C.ar    1  UNL1        0.1281
     30 N         137.6590  141.5357  162.0284 N.ar    1  UNL1       -0.2400
     31 C         138.3580  141.7650  163.3356 C.ar    1  UNL1        0.0990
     32 C         138.5535  143.1616  163.8468 C.ar    1  UNL1        0.0254
     33 C         139.2525  143.3908  165.1541 C.ar    1  UNL1        0.0593
     34 C         139.7560  142.2234  165.9501 C.ar    1  UNL1        0.2249
     35 N         139.5606  140.8268  165.4389 N.ar    1  UNL1       -0.2104
     36 C         138.8616  140.5976  164.1317 C.ar    1  UNL1        0.1002
     37 O         140.4550  142.4527  167.2573 O.3     1  UNL1       -0.4600
     38 C         141.9140  142.1324  167.3939 C.3     1  UNL1        0.2132
     39 C         142.4091  141.3893  168.5993 C.3     1  UNL1        0.1195
     40 C         141.5038  141.1834  169.7775 C.3     1  UNL1        0.2988
     41 F         140.9892  139.9167  169.1606 F       1  UNL1       -0.1982
     42 F         142.0184  142.4501  170.3943 F       1  UNL1       -0.1982
     43 C         140.5985  140.9775  170.9556 C.2     1  UNL1        0.1110
     44 O         140.5690  141.9873  172.0644 O.co2   1  UNL1       -0.5439
     45 O         139.7227  139.7616  171.0250 O.co2   1  UNL1       -0.5439
@<TRIPOS>UNITY_ATOM_ATTR
44 1
charge -1
@<TRIPOS>BOND
     1    12    13    2
     2    13    14    1
     3    14    15    1
     4    15    16    1
     5    16    17   ar
     6    17    18   ar
     7    18    19   ar
     8    19    11    1
     9    11     9    1
    10     9     1    1
    11     1     2    1
    12     2     3    1
    13     3     4    1
    14     4    24    1
    15    24    25    1
    16    25    26    1
    17    26    27   ar
    18    27    28    1
    19    27    29   ar
    20    29    30   ar
    21    30    31   ar
    22    31    32   ar
    23    32    33   ar
    24    33    34   ar
    25    34    37    1
    26    37    38    1
    27    38    39    1
    28    39    40    1
    29    40    41    1
    30    40    42    1
    31    40    43    1
    32    43    44   ar
    33    43    45   ar
    34    34    35   ar
    35    35    36   ar
    36     4     5    1
    37     5     6    1
    38     4     7    1
    39     7     8    1
    40    19    20   ar
    41    20    21   ar
    42    21    22    1
    43    22    13   am
    44    21    16   ar
    45     6     1    1
    46     8     1    1
    47    36    26   ar
    48    36    31   ar
    49     9    10    1
    50    22    23    1
@<TRIPOS>MOLECULE
*****
 45 50 0 0 0
SMALL
GASTEIGER

@<TRIPOS>ATOM
      1 C         137.8990  140.0147  162.6156 C.3     1  UNL1        0.0700
      2 C         138.0654  140.1760  164.0976 C.3     1  UNL1        0.0193
      3 C         138.0542  141.5457  164.7089 C.3     1  UNL1        0.0286
      4 C         137.8765  142.7542  163.8381 C.3     1  UNL1        0.0932
      5 C         137.7101  142.5929  162.3562 C.3     1  UNL1        0.0286
      6 C         137.7213  141.2230  161.7449 C.3     1  UNL1        0.0193
      7 O         137.8760  142.0241  163.4576 O.3     1  UNL1       -0.3572
      8 C         137.8861  140.7855  162.9048 C.3     1  UNL1        0.1562
      9 N         137.9102  138.6449  162.0044 N.3     1  UNL1       -0.2926
     10 H         137.7195  137.9846  162.7580 H       1  UNL1        0.1236
     11 C         139.1358  138.1502  161.2950 C.3     1  UNL1        0.1152
     12 O         143.9887  137.9904  167.3920 O.2     1  UNL1       -0.2707
     13 C         143.7290  138.2930  165.9460 C.2     1  UNL1        0.2718
     14 C         144.8273  138.8449  165.0863 C.3     1  UNL1        0.2898
     15 O         144.5676  139.1475  163.6402 O.3     1  UNL1       -0.4628
     16 C         143.2097  138.8982  163.0539 C.ar    1  UNL1        0.1708
     17 C         142.9500  139.2008  161.6079 C.ar    1  UNL1        0.0411
     18 C         141.5921  138.9515  161.0216 C.ar    1  UNL1        0.0193
     19 C         140.4937  138.3995  161.8813 C.ar    1  UNL1        0.0765
     20 N         140.7534  138.0969  163.3273 N.ar    1  UNL1       -0.2304
     21 C         142.1114  138.3463  163.9136 C.ar    1  UNL1        0.1682
     22 N         142.3711  138.0437  165.3597 N.am    1  UNL1       -0.2639
     23 H         141.6502  137.6814  165.9239 H       1  UNL1        0.1565
     24 C         137.8653  144.1239  164.4494 C.3     1  UNL1        0.0320
     25 C         139.1558  144.8530  164.6799 C.3     1  UNL1        0.0327
     26 C         140.2908  144.6929  163.7124 C.ar    1  UNL1        0.0261
     27 C         140.2280  145.3528  162.3667 C.ar    1  UNL1        0.1566
     28 F         139.0301  146.1727  161.9887 F       1  UNL1       -0.2028
     29 C         141.3630  145.1927  161.3992 C.ar    1  UNL1        0.1281
     30 N         142.5608  144.3728  161.7773 N.ar    1  UNL1       -0.2400
     31 C         142.6236  143.7129  163.1228 C.ar    1  UNL1        0.0990
     32 C         143.8215  142.8930  163.5009 C.ar    1  UNL1        0.0254
     33 C         143.8843  142.2331  164.8466 C.ar    1  UNL1        0.0593
     34 C         142.7493  142.3932  165.8141 C.ar    1  UNL1        0.2249
     35 N         141.5514  143.2131  165.4360 N.ar    1  UNL1       -0.2104
     36 C         141.4886  143.8730  164.0904 C.ar    1  UNL1        0.1002
     37 O         142.8121  141.7334  167.1596 O.3     1  UNL1       -0.4600
     38 C         141.6866  140.8535  167.6168 C.3     1  UNL1        0.2132
     39 C         140.3709  141.4601  168.0058 C.3     1  UNL1        0.1195
     40 C         140.2293  142.1626  169.3235 C.3     1  UNL1        0.2988
     41 F         139.3695  141.0421  169.8286 F       1  UNL1       -0.1982
     42 F         141.0891  143.2832  168.8184 F       1  UNL1       -0.1982
     43 C         140.0877  142.8652  170.6412 C.2     1  UNL1        0.1110
     44 O         140.4368  142.1511  171.9132 O.co2   1  UNL1       -0.5439
     45 O         139.5970  144.2820  170.6868 O.co2   1  UNL1       -0.5439
@<TRIPOS>UNITY_ATOM_ATTR
44 1
charge -1
@<TRIPOS>BOND
     1    12    13    2
     2    13    14    1
     3    14    15    1
     4    15    16    1
     5    16    17   ar
     6    17    18   ar
     7    18    19   ar
     8    19    11    1
     9    11     9    1
    10     9     1    1
    11     1     2    1
    12     2     3    1
    13     3     4    1
    14     4    24    1
    15    24    25    1
    16    25    26    1
    17    26    27   ar
    18    27    28    1
    19    27    29   ar
    20    29    30   ar
    21    30    31   ar
    22    31    32   ar
    23    32    33   ar
    24    33    34   ar
    25    34    37    1
    26    37    38    1
    27    38    39    1
    28    39    40    1
    29    40    41    1
    30    40    42    1
    31    40    43    1
    32    43    44   ar
    33    43    45   ar
    34    34    35   ar
    35    35    36   ar
    36     4     5    1
    37     5     6    1
    38     4     7    1
    39     7     8    1
    40    19    20   ar
    41    20    21   ar
    42    21    22    1
    43    22    13   am
    44    21    16   ar
    45     6     1    1
    46     8     1    1
    47    36    26   ar
    48    36    31   ar
    49     9    10    1
    50    22    23    1
@<TRIPOS>MOLECULE
*****
 45 50 0 0 0
SMALL
GASTEIGER

@<TRIPOS>ATOM
      1 C         140.7390  144.7022  164.1361 C.3     1  UNL1        0.0700
      2 C         140.9327  143.5490  165.0756 C.3     1  UNL1        0.0193
      3 C         142.3080  143.0007  165.3165 C.3     1  UNL1        0.0286
      4 C         143.4896  143.6057  164.6179 C.3     1  UNL1        0.0932
      5 C         143.2958  144.7589  163.6784 C.3     1  UNL1        0.0286
      6 C         141.9205  145.3072  163.4376 C.3     1  UNL1        0.0193
      7 O         142.7552  143.9402  164.4541 O.3     1  UNL1       -0.3572
      8 C         141.5117  144.4360  164.2363 C.3     1  UNL1        0.1562
      9 N         139.3637  145.2504  163.8953 N.3     1  UNL1       -0.2926
     10 H         138.8422  145.1293  164.7635 H       1  UNL1        0.1236
     11 C         138.5129  144.6855  162.7966 C.3     1  UNL1        0.1152
     12 O         140.6220  138.3217  158.8212 O.2     1  UNL1       -0.2707
     13 C         139.8504  138.9590  159.9385 C.2     1  UNL1        0.2718
     14 C         139.0102  138.1124  160.8480 C.3     1  UNL1        0.2898
     15 O         138.2386  138.7497  161.9654 O.3     1  UNL1       -0.4628
     16 C         138.3072  140.2336  162.1732 C.ar    1  UNL1        0.1708
     17 C         137.5356  140.8709  163.2905 C.ar    1  UNL1        0.0411
     18 C         137.6041  142.3548  163.4984 C.ar    1  UNL1        0.0193
     19 C         138.4443  143.2015  162.5888 C.ar    1  UNL1        0.0765
     20 N         139.2159  142.5642  161.4715 N.ar    1  UNL1       -0.2304
     21 C         139.1473  141.0802  161.2637 C.ar    1  UNL1        0.1682
     22 N         139.9190  140.4429  160.1463 N.am    1  UNL1       -0.2639
     23 H         140.4704  140.9986  159.5494 H       1  UNL1        0.1565
     24 C         144.8648  143.0574  164.8588 C.3     1  UNL1        0.0320
     25 C         145.4604  142.0755  163.8938 C.3     1  UNL1        0.0327
     26 C         144.5665  141.1909  163.0764 C.ar    1  UNL1        0.0261
     27 C         144.4497  141.4050  161.5963 C.ar    1  UNL1        0.1566
     28 F         145.2268  142.5036  160.9337 F       1  UNL1       -0.2028
     29 C         143.5557  140.5204  160.7788 C.ar    1  UNL1        0.1281
     30 N         142.7786  139.4217  161.4413 N.ar    1  UNL1       -0.2400
     31 C         142.8953  139.2076  162.9213 C.ar    1  UNL1        0.0990
     32 C         142.1181  138.1090  163.5838 C.ar    1  UNL1        0.0254
     33 C         142.2349  137.8949  165.0639 C.ar    1  UNL1        0.0593
     34 C         143.1289  138.7795  165.8814 C.ar    1  UNL1        0.2249
     35 N         143.9061  139.8782  165.2189 N.ar    1  UNL1       -0.2104
     36 C         143.7893  140.0923  163.7389 C.ar    1  UNL1        0.1002
     37 O         143.2456  138.5654  167.3614 O.3     1  UNL1       -0.4600
     38 C         142.5216  139.4741  168.3101 C.3     1  UNL1        0.2132
     39 C         141.1961  140.0602  167.9229 C.3     1  UNL1        0.1195
     40 C         140.1973  140.4207  168.9824 C.3     1  UNL1        0.2988
     41 F         141.2455  141.2193  169.6989 F       1  UNL1       -0.1982
     42 F         139.1491  139.6221  168.2658 F       1  UNL1       -0.1982
     43 C         139.1985  140.7812  170.0418 C.2     1  UNL1        0.1110
     44 O         138.1668  139.7807  170.4714 O.co2   1  UNL1       -0.5439
     45 O         139.2313  142.1422  170.6716 O.co2   1  UNL1       -0.5439
@<TRIPOS>UNITY_ATOM_ATTR
44 1
charge -1
@<TRIPOS>BOND
     1    12    13    2
     2    13    14    1
     3    14    15    1
     4    15    16    1
     5    16    17   ar
     6    17    18   ar
     7    18    19   ar
     8    19    11    1
     9    11     9    1
    10     9     1    1
    11     1     2    1
    12     2     3    1
    13     3     4    1
    14     4    24    1
    15    24    25    1
    16    25    26    1
    17    26    27   ar
    18    27    28    1
    19    27    29   ar
    20    29    30   ar
    21    30    31   ar
    22    31    32   ar
    23    32    33   ar
    24    33    34   ar
    25    34    37    1
    26    37    38    1
    27    38    39    1
    28    39    40    1
    29    40    41    1
    30    40    42    1
    31    40    43    1
    32    43    44   ar
    33    43    45   ar
    34    34    35   ar
    35    35    36   ar
    36     4     5    1
    37     5     6    1
    38     4     7    1
    39     7     8    1
    40    19    20   ar
    41    20    21   ar
    42    21    22    1
    43    22    13   am
    44    21    16   ar
    45     6     1    1
    46     8     1    1
    47    36    26   ar
    48    36    31   ar
    49     9    10    1
    50    22    23    1
@<TRIPOS>MOLECULE
*****
 45 50 0 0 0
SMALL
GASTEIGER

@<TRIPOS>ATOM
      1 C         139.8091  144.0926  162.3056 C.3     1  UNL1        0.0700
      2 C         140.9831  144.2794  161.3907 C.3     1  UNL1        0.0193
      3 C         142.3687  144.3715  161.9577 C.3     1  UNL1        0.0286
      4 C         142.5804  144.2768  163.4397 C.3     1  UNL1        0.0932
      5 C         141.4065  144.0900  164.3547 C.3     1  UNL1        0.0286
      6 C         140.0208  143.9979  163.7876 C.3     1  UNL1        0.0193
      7 O         141.8026  144.2209  163.1756 O.3     1  UNL1       -0.3572
      8 C         140.5496  144.1376  162.6629 C.3     1  UNL1        0.1562
      9 N         138.4235  144.0005  161.7386 N.3     1  UNL1       -0.2926
     10 H         137.7817  144.2680  162.4848 H       1  UNL1        0.1236
     11 C         137.9249  142.6987  161.1845 C.3     1  UNL1        0.1152
     12 O         137.6837  138.4058  167.6854 O.2     1  UNL1       -0.2707
     13 C         138.0549  138.5541  166.2397 C.2     1  UNL1        0.2718
     14 C         138.7168  137.4197  165.5151 C.3     1  UNL1        0.2898
     15 O         139.0880  137.5680  164.0694 O.3     1  UNL1       -0.4628
     16 C         138.7972  138.8507  163.3482 C.ar    1  UNL1        0.1708
     17 C         139.1684  138.9990  161.9024 C.ar    1  UNL1        0.0411
     18 C         138.8777  140.2816  161.1812 C.ar    1  UNL1        0.0193
     19 C         138.2157  141.4161  161.9057 C.ar    1  UNL1        0.0765
     20 N         137.8445  141.2678  163.3515 N.ar    1  UNL1       -0.2304
     21 C         138.1353  139.9850  164.0727 C.ar    1  UNL1        0.1682
     22 N         137.7641  139.8367  165.5185 N.am    1  UNL1       -0.2639
     23 H         137.3296  140.5813  165.9940 H       1  UNL1        0.1565
     24 C         143.9660  144.3689  164.0068 C.3     1  UNL1        0.0320
     25 C         144.7752  143.1233  164.2158 C.3     1  UNL1        0.0327
     26 C         144.4060  141.8597  163.4970 C.ar    1  UNL1        0.0261
     27 C         144.7474  141.6952  162.0456 C.ar    1  UNL1        0.1566
     28 F         145.4581  142.7944  161.3131 F       1  UNL1       -0.2028
     29 C         144.3781  140.4315  161.3268 C.ar    1  UNL1        0.1281
     30 N         143.6674  139.3322  162.0593 N.ar    1  UNL1       -0.2400
     31 C         143.3260  139.4967  163.5106 C.ar    1  UNL1        0.0990
     32 C         142.6153  138.3974  164.2431 C.ar    1  UNL1        0.0254
     33 C         142.2739  138.5619  165.6945 C.ar    1  UNL1        0.0593
     34 C         142.6432  139.8256  166.4133 C.ar    1  UNL1        0.2249
     35 N         143.3538  140.9248  165.6808 N.ar    1  UNL1       -0.2104
     36 C         143.6953  140.7604  164.2295 C.ar    1  UNL1        0.1002
     37 O         142.3017  139.9900  167.8646 O.3     1  UNL1       -0.4600
     38 C         140.8781  139.8619  168.3194 C.3     1  UNL1        0.2132
     39 C         139.9870  141.0684  168.3434 C.3     1  UNL1        0.1195
     40 C         140.0296  142.0091  169.5110 C.3     1  UNL1        0.2988
     41 F         139.0409  141.1485  170.2404 F       1  UNL1       -0.1982
     42 F         141.0182  142.8697  168.7816 F       1  UNL1       -0.1982
     43 C         140.0722  142.9498  170.6786 C.2     1  UNL1        0.1110
     44 O         139.9911  144.4303  170.4522 O.co2   1  UNL1       -0.5439
     45 O         140.1959  142.4098  172.0726 O.co2   1  UNL1       -0.5439
@<TRIPOS>UNITY_ATOM_ATTR
44 1
charge -1
@<TRIPOS>BOND
     1    12    13    2
     2    13    14    1
     3    14    15    1
     4    15    16    1
     5    16    17   ar
     6    17    18   ar
     7    18    19   ar
     8    19    11    1
     9    11     9    1
    10     9     1    1
    11     1     2    1
    12     2     3    1
    13     3     4    1
    14     4    24    1
    15    24    25    1
    16    25    26    1
    17    26    27   ar
    18    27    28    1
    19    27    29   ar
    20    29    30   ar
    21    30    31   ar
    22    31    32   ar
    23    32    33   ar
    24    33    34   ar
    25    34    37    1
    26    37    38    1
    27    38    39    1
    28    39    40    1
    29    40    41    1
    30    40    42    1
    31    40    43    1
    32    43    44   ar
    33    43    45   ar
    34    34    35   ar
    35    35    36   ar
    36     4     5    1
    37     5     6    1
    38     4     7    1
    39     7     8    1
    40    19    20   ar
    41    20    21   ar
    42    21    22    1
    43    22    13   am
    44    21    16   ar
    45     6     1    1
    46     8     1    1
    47    36    26   ar
    48    36    31   ar
    49     9    10    1
    50    22    23    1
@<TRIPOS>MOLECULE
*****
 45 50 0 0 0
SMALL
GASTEIGER

@<TRIPOS>ATOM
      1 C         141.4114  144.6535  163.2081 C.3     1  UNL1        0.0700
      2 C         140.8528  144.0173  164.4463 C.3     1  UNL1        0.0193
      3 C         139.5864  143.2169  164.3723 C.3     1  UNL1        0.0286
      4 C         138.8785  143.0527  163.0600 C.3     1  UNL1        0.0932
      5 C         139.4371  143.6889  161.8218 C.3     1  UNL1        0.0286
      6 C         140.7036  144.4893  161.8958 C.3     1  UNL1        0.0193
      7 O         139.5695  143.5004  163.0511 O.3     1  UNL1       -0.3572
      8 C         140.7146  144.2241  163.1180 C.3     1  UNL1        0.1562
      9 N         142.6779  145.4538  163.2821 N.3     1  UNL1       -0.2926
     10 H         142.5969  146.1978  162.5890 H       1  UNL1        0.1236
     11 C         144.0012  144.7871  163.0490 C.3     1  UNL1        0.1152
     12 O         143.3400  138.4809  158.5163 O.2     1  UNL1       -0.2707
     13 C         143.6302  139.0947  159.8539 C.2     1  UNL1        0.2718
     14 C         143.9901  138.2201  161.0181 C.3     1  UNL1        0.2898
     15 O         144.2802  138.8338  162.3557 O.3     1  UNL1       -0.4628
     16 C         144.2105  140.3221  162.5291 C.ar    1  UNL1        0.1708
     17 C         144.5006  140.9358  163.8666 C.ar    1  UNL1        0.0411
     18 C         144.4309  142.4241  164.0400 C.ar    1  UNL1        0.0193
     19 C         144.0710  143.2988  162.8757 C.ar    1  UNL1        0.0765
     20 N         143.7808  142.6851  161.5381 N.ar    1  UNL1       -0.2304
     21 C         143.8506  141.1967  161.3648 C.ar    1  UNL1        0.1682
     22 N         143.5604  140.5829  160.0272 N.am    1  UNL1       -0.2639
     23 H         143.3242  141.1570  159.2630 H       1  UNL1        0.1565
     24 C         137.6121  142.2523  162.9861 C.3     1  UNL1        0.0320
     25 C         137.5865  140.8404  163.4919 C.3     1  UNL1        0.0327
     26 C         138.4445  139.7954  162.8426 C.ar    1  UNL1        0.0261
     27 C         138.1408  139.3365  161.4471 C.ar    1  UNL1        0.1566
     28 F         136.9789  139.9227  160.7011 F       1  UNL1       -0.2028
     29 C         138.9988  138.2916  160.7977 C.ar    1  UNL1        0.1281
     30 N         140.1607  137.7054  161.5438 N.ar    1  UNL1       -0.2400
     31 C         140.4645  138.1642  162.9391 C.ar    1  UNL1        0.0990
     32 C         141.6263  137.5781  163.6852 C.ar    1  UNL1        0.0254
     33 C         141.9301  138.0370  165.0806 C.ar    1  UNL1        0.0593
     34 C         141.0720  139.0820  165.7300 C.ar    1  UNL1        0.2249
     35 N         139.9102  139.6681  164.9840 N.ar    1  UNL1       -0.2104
     36 C         139.6064  139.2093  163.5886 C.ar    1  UNL1        0.1002
     37 O         141.3758  139.5408  167.1253 O.3     1  UNL1       -0.4600
     38 C         140.2829  140.1046  167.9842 C.3     1  UNL1        0.2132
     39 C         140.2078  141.5827  168.2282 C.3     1  UNL1        0.1195
     40 C         140.0759  142.1061  169.6277 C.3     1  UNL1        0.2988
     41 F         141.1734  143.0934  169.3619 F       1  UNL1       -0.1982
     42 F         138.9784  141.1188  169.8935 F       1  UNL1       -0.1982
     43 C         139.9441  142.6295  171.0273 C.2     1  UNL1        0.1110
     44 O         140.7973  142.0630  172.1232 O.co2   1  UNL1       -0.5439
     45 O         138.9591  143.7193  171.3308 O.co2   1  UNL1       -0.5439
@<TRIPOS>UNITY_ATOM_ATTR
44 1
charge -1
@<TRIPOS>BOND
     1    12    13    2
     2    13    14    1
     3    14    15    1
     4    15    16    1
     5    16    17   ar
     6    17    18   ar
     7    18    19   ar
     8    19    11    1
     9    11     9    1
    10     9     1    1
    11     1     2    1
    12     2     3    1
    13     3     4    1
    14     4    24    1
    15    24    25    1
    16    25    26    1
    17    26    27   ar
    18    27    28    1
    19    27    29   ar
    20    29    30   ar
    21    30    31   ar
    22    31    32   ar
    23    32    33   ar
    24    33    34   ar
    25    34    37    1
    26    37    38    1
    27    38    39    1
    28    39    40    1
    29    40    41    1
    30    40    42    1
    31    40    43    1
    32    43    44   ar
    33    43    45   ar
    34    34    35   ar
    35    35    36   ar
    36     4     5    1
    37     5     6    1
    38     4     7    1
    39     7     8    1
    40    19    20   ar
    41    20    21   ar
    42    21    22    1
    43    22    13   am
    44    21    16   ar
    45     6     1    1
    46     8     1    1
    47    36    26   ar
    48    36    31   ar
    49     9    10    1
    50    22    23    1
@<TRIPOS>MOLECULE
*****
 45 50 0 0 0
SMALL
GASTEIGER

@<TRIPOS>ATOM
      1 C         144.1666  139.6578  163.0364 C.3     1  UNL1        0.0700
      2 C         143.8370  139.1225  164.3983 C.3     1  UNL1        0.0193
      3 C         142.5789  138.3337  164.6098 C.3     1  UNL1        0.0286
      4 C         141.6503  138.0801  163.4594 C.3     1  UNL1        0.0932
      5 C         141.9799  138.6154  162.0974 C.3     1  UNL1        0.0286
      6 C         143.2381  139.4043  161.8860 C.3     1  UNL1        0.0193
      7 O         142.3280  138.5177  163.2947 O.3     1  UNL1       -0.3572
      8 C         143.4656  139.2311  163.1035 C.3     1  UNL1        0.1562
      9 N         145.4248  140.4467  162.8249 N.3     1  UNL1       -0.2926
     10 H         146.1643  139.9639  163.3352 H       1  UNL1        0.1236
     11 C         145.4845  141.8879  163.2365 C.3     1  UNL1        0.1152
     12 O         140.2819  145.7331  158.8893 O.2     1  UNL1       -0.2707
     13 C         140.7919  145.3120  160.2356 C.2     1  UNL1        0.2718
     14 C         140.0776  145.7516  161.4793 C.3     1  UNL1        0.2898
     15 O         140.5876  145.3305  162.8256 O.3     1  UNL1       -0.4628
     16 C         141.8118  144.4699  162.9283 C.ar    1  UNL1        0.1708
     17 C         142.3217  144.0488  164.2747 C.ar    1  UNL1        0.0411
     18 C         143.5459  143.1882  164.3774 C.ar    1  UNL1        0.0193
     19 C         144.2603  142.7486  163.1337 C.ar    1  UNL1        0.0765
     20 N         143.7503  143.1697  161.7874 N.ar    1  UNL1       -0.2304
     21 C         142.5260  144.0303  161.6847 C.ar    1  UNL1        0.1682
     22 N         142.0161  144.4514  160.3384 N.am    1  UNL1       -0.2639
     23 H         142.4849  144.1629  159.5221 H       1  UNL1        0.1565
     24 C         140.3922  137.2912  163.6708 C.3     1  UNL1        0.0320
     25 C         139.1757  137.9582  164.2411 C.3     1  UNL1        0.0327
     26 C         139.0417  139.4510  164.1821 C.ar    1  UNL1        0.0261
     27 C         138.4833  140.1059  162.9535 C.ar    1  UNL1        0.1566
     28 F         138.0590  139.2679  161.7840 F       1  UNL1       -0.2028
     29 C         138.3493  141.5987  162.8945 C.ar    1  UNL1        0.1281
     30 N         138.7736  142.4367  164.0640 N.ar    1  UNL1       -0.2400
     31 C         139.3319  141.7818  165.2925 C.ar    1  UNL1        0.0990
     32 C         139.7563  142.6198  166.4621 C.ar    1  UNL1        0.0254
     33 C         140.3146  141.9648  167.6907 C.ar    1  UNL1        0.0593
     34 C         140.4486  140.4720  167.7497 C.ar    1  UNL1        0.2249
     35 N         140.0243  139.6341  166.5802 N.ar    1  UNL1       -0.2104
     36 C         139.4660  140.2889  165.3516 C.ar    1  UNL1        0.1002
     37 O         141.0069  139.8172  168.9783 O.3     1  UNL1       -0.4600
     38 C         140.6750  140.3627  170.3356 C.3     1  UNL1        0.2132
     39 C         141.6563  141.2439  171.0502 C.3     1  UNL1        0.1195
     40 C         142.7620  141.9093  170.2856 C.3     1  UNL1        0.2988
     41 F         143.5908  140.6644  170.4008 F       1  UNL1       -0.1982
     42 F         141.9332  143.1542  170.1704 F       1  UNL1       -0.1982
     43 C         143.8677  142.5747  169.5210 C.2     1  UNL1        0.1110
     44 O         143.7572  142.7409  168.0344 O.co2   1  UNL1       -0.5439
     45 O         145.0841  143.0739  170.2431 O.co2   1  UNL1       -0.5439
@<TRIPOS>UNITY_ATOM_ATTR
44 1
charge -1
@<TRIPOS>BOND
     1    12    13    2
     2    13    14    1
     3    14    15    1
     4    15    16    1
     5    16    17   ar
     6    17    18   ar
     7    18    19   ar
     8    19    11    1
     9    11     9    1
    10     9     1    1
    11     1     2    1
    12     2     3    1
    13     3     4    1
    14     4    24    1
    15    24    25    1
    16    25    26    1
    17    26    27   ar
    18    27    28    1
    19    27    29   ar
    20    29    30   ar
    21    30    31   ar
    22    31    32   ar
    23    32    33   ar
    24    33    34   ar
    25    34    37    1
    26    37    38    1
    27    38    39    1
    28    39    40    1
    29    40    41    1
    30    40    42    1
    31    40    43    1
    32    43    44   ar
    33    43    45   ar
    34    34    35   ar
    35    35    36   ar
    36     4     5    1
    37     5     6    1
    38     4     7    1
    39     7     8    1
    40    19    20   ar
    41    20    21   ar
    42    21    22    1
    43    22    13   am
    44    21    16   ar
    45     6     1    1
    46     8     1    1
    47    36    26   ar
    48    36    31   ar
    49     9    10    1
    50    22    23    1
@<TRIPOS>MOLECULE
*****
 45 50 0 0 0
SMALL
GASTEIGER

@<TRIPOS>ATOM
      1 C         142.4390  144.7832  163.3151 C.3     1  UNL1        0.0700
      2 C         143.2495  144.3878  162.1165 C.3     1  UNL1        0.0193
      3 C         144.1914  143.2234  162.1989 C.3     1  UNL1        0.0286
      4 C         144.3229  142.4542  163.4801 C.3     1  UNL1        0.0932
      5 C         143.5124  142.8496  164.6787 C.3     1  UNL1        0.0286
      6 C         142.5705  144.0141  164.5962 C.3     1  UNL1        0.0193
      7 O         143.7936  143.0850  163.4830 O.3     1  UNL1       -0.3572
      8 C         142.9419  144.1379  163.4085 C.3     1  UNL1        0.1562
      9 N         141.4972  145.9476  163.2327 N.3     1  UNL1       -0.2926
     10 H         141.1676  146.1275  164.1811 H       1  UNL1        0.1236
     11 C         140.2802  145.8676  162.3593 C.3     1  UNL1        0.1152
     12 O         138.4477  139.5210  158.2226 O.2     1  UNL1       -0.2707
     13 C         138.3129  140.3415  159.4710 C.2     1  UNL1        0.2718
     14 C         137.4325  139.8671  160.5889 C.3     1  UNL1        0.2898
     15 O         137.2977  140.6877  161.8373 O.3     1  UNL1       -0.4628
     16 C         138.0433  141.9826  161.9678 C.ar    1  UNL1        0.1708
     17 C         137.9085  142.8032  163.2162 C.ar    1  UNL1        0.0411
     18 C         138.6541  144.0982  163.3467 C.ar    1  UNL1        0.0193
     19 C         139.5346  144.5726  162.2288 C.ar    1  UNL1        0.0765
     20 N         139.6694  143.7521  160.9804 N.ar    1  UNL1       -0.2304
     21 C         138.9237  142.4570  160.8499 C.ar    1  UNL1        0.1682
     22 N         139.0585  141.6365  159.6015 N.am    1  UNL1       -0.2639
     23 H         139.6364  141.9479  158.8678 H       1  UNL1        0.1565
     24 C         145.2648  141.2898  163.5625 C.3     1  UNL1        0.0320
     25 C         144.7248  139.8934  163.6548 C.3     1  UNL1        0.0327
     26 C         143.3644  139.5777  163.1074 C.ar    1  UNL1        0.0261
     27 C         143.1794  139.3659  161.6339 C.ar    1  UNL1        0.1566
     28 F         144.3548  139.4699  160.7079 F       1  UNL1       -0.2028
     29 C         141.8190  139.0502  161.0866 C.ar    1  UNL1        0.1281
     30 N         140.6436  138.9462  162.0126 N.ar    1  UNL1       -0.2400
     31 C         140.8285  139.1579  163.4860 C.ar    1  UNL1        0.0990
     32 C         139.6531  139.0539  164.4121 C.ar    1  UNL1        0.0254
     33 C         139.8381  139.2656  165.8855 C.ar    1  UNL1        0.0593
     34 C         141.1985  139.5814  166.4329 C.ar    1  UNL1        0.2249
     35 N         142.3739  139.6854  165.5068 N.ar    1  UNL1       -0.2104
     36 C         142.1890  139.4737  164.0334 C.ar    1  UNL1        0.1002
     37 O         141.3834  139.7931  167.9063 O.3     1  UNL1       -0.4600
     38 C         142.4014  140.7777  168.4005 C.3     1  UNL1        0.2132
     39 C         142.1210  142.2493  168.3225 C.3     1  UNL1        0.1195
     40 C         141.2071  142.8928  169.3228 C.3     1  UNL1        0.2988
     41 F         142.3941  143.4656  170.0389 F       1  UNL1       -0.1982
     42 F         140.0200  142.3199  168.6067 F       1  UNL1       -0.1982
     43 C         140.2931  143.5362  170.3231 C.2     1  UNL1        0.1110
     44 O         140.0549  145.0164  170.2779 O.co2   1  UNL1       -0.5439
     45 O         139.6174  142.6993  171.3687 O.co2   1  UNL1       -0.5439
@<TRIPOS>UNITY_ATOM_ATTR
44 1
charge -1
@<TRIPOS>BOND
     1    12    13    2
     2    13    14    1
     3    14    15    1
     4    15    16    1
     5    16    17   ar
     6    17    18   ar
     7    18    19   ar
     8    19    11    1
     9    11     9    1
    10     9     1    1
    11     1     2    1
    12     2     3    1
    13     3     4    1
    14     4    24    1
    15    24    25    1
    16    25    26    1
    17    26    27   ar
    18    27    28    1
    19    27    29   ar
    20    29    30   ar
    21    30    31   ar
    22    31    32   ar
    23    32    33   ar
    24    33    34   ar
    25    34    37    1
    26    37    38    1
    27    38    39    1
    28    39    40    1
    29    40    41    1
    30    40    42    1
    31    40    43    1
    32    43    44   ar
    33    43    45   ar
    34    34    35   ar
    35    35    36   ar
    36     4     5    1
    37     5     6    1
    38     4     7    1
    39     7     8    1
    40    19    20   ar
    41    20    21   ar
    42    21    22    1
    43    22    13   am
    44    21    16   ar
    45     6     1    1
    46     8     1    1
    47    36    26   ar
    48    36    31   ar
    49     9    10    1
    50    22    23    1
@<TRIPOS>MOLECULE
*****
 45 50 0 0 0
SMALL
GASTEIGER

@<TRIPOS>ATOM
      1 C         142.0318  137.8887  163.0088 C.3     1  UNL1        0.0700
      2 C         142.4082  138.0957  164.4460 C.3     1  UNL1        0.0193
      3 C         143.5762  138.9689  164.7972 C.3     1  UNL1        0.0286
      4 C         144.3678  139.6351  163.7111 C.3     1  UNL1        0.0932
      5 C         143.9915  139.4281  162.2739 C.3     1  UNL1        0.0286
      6 C         142.8234  138.5549  161.9228 C.3     1  UNL1        0.0193
      7 O         143.7360  139.1656  163.4697 O.3     1  UNL1       -0.3572
      8 C         142.6799  138.3761  163.1522 C.3     1  UNL1        0.1562
      9 N         140.8638  137.0156  162.6576 N.3     1  UNL1       -0.2926
     10 H         140.9634  136.7731  161.6719 H       1  UNL1        0.1236
     11 C         139.4648  137.5255  162.8390 C.3     1  UNL1        0.1152
     12 O         137.2715  144.5872  165.3031 O.2     1  UNL1       -0.2707
     13 C         137.6844  143.6699  164.1904 C.2     1  UNL1        0.2718
     14 C         137.7789  144.1892  162.7864 C.3     1  UNL1        0.2898
     15 O         138.1917  143.2719  161.6737 O.3     1  UNL1       -0.4628
     16 C         138.5100  141.8353  161.9650 C.ar    1  UNL1        0.1708
     17 C         138.9229  140.9180  160.8523 C.ar    1  UNL1        0.0411
     18 C         139.2411  139.4815  161.1436 C.ar    1  UNL1        0.0193
     19 C         139.1466  138.9621  162.5477 C.ar    1  UNL1        0.0765
     20 N         138.7337  139.8794  163.6604 N.ar    1  UNL1       -0.2304
     21 C         138.4155  141.3161  163.3690 C.ar    1  UNL1        0.1682
     22 N         138.0026  142.2333  164.4817 N.am    1  UNL1       -0.2639
     23 H         137.9406  141.8925  165.4033 H       1  UNL1        0.1565
     24 C         145.5358  140.5083  164.0623 C.3     1  UNL1        0.0320
     25 C         145.3400  141.9837  164.2485 C.3     1  UNL1        0.0327
     26 C         143.9869  142.5939  164.0326 C.ar    1  UNL1        0.0261
     27 C         143.6384  143.1944  162.7029 C.ar    1  UNL1        0.1566
     28 F         144.6431  143.1848  161.5892 F       1  UNL1       -0.2028
     29 C         142.2852  143.8045  162.4871 C.ar    1  UNL1        0.1281
     30 N         141.2805  143.8142  163.6008 N.ar    1  UNL1       -0.2400
     31 C         141.6289  143.2137  164.9304 C.ar    1  UNL1        0.0990
     32 C         140.6242  143.2234  166.0442 C.ar    1  UNL1        0.0254
     33 C         140.9727  142.6228  167.3739 C.ar    1  UNL1        0.0593
     34 C         142.3258  142.0127  167.5898 C.ar    1  UNL1        0.2249
     35 N         143.3306  142.0030  166.4760 N.ar    1  UNL1       -0.2104
     36 C         142.9821  142.6035  165.1464 C.ar    1  UNL1        0.1002
     37 O         142.6742  141.4122  168.9194 O.3     1  UNL1       -0.4600
     38 C         142.3827  142.1667  170.1826 C.3     1  UNL1        0.2132
     39 C         141.1935  141.7978  171.0191 C.3     1  UNL1        0.1195
     40 C         140.0905  140.9691  170.4303 C.3     1  UNL1        0.2988
     41 F         140.8132  139.7189  170.8361 F       1  UNL1       -0.1982
     42 F         139.3677  142.2193  170.0246 F       1  UNL1       -0.1982
     43 C         138.9875  140.1403  169.8416 C.2     1  UNL1        0.1110
     44 O         137.8031  139.7628  170.6810 O.co2   1  UNL1       -0.5439
     45 O         139.0689  139.6891  168.4133 O.co2   1  UNL1       -0.5439
@<TRIPOS>UNITY_ATOM_ATTR
44 1
charge -1
@<TRIPOS>BOND
     1    12    13    2
     2    13    14    1
     3    14    15    1
     4    15    16    1
     5    16    17   ar
     6    17    18   ar
     7    18    19   ar
     8    19    11    1
     9    11     9    1
    10     9     1    1
    11     1     2    1
    12     2     3    1
    13     3     4    1
    14     4    24    1
    15    24    25    1
    16    25    26    1
    17    26    27   ar
    18    27    28    1
    19    27    29   ar
    20    29    30   ar
    21    30    31   ar
    22    31    32   ar
    23    32    33   ar
    24    33    34   ar
    25    34    37    1
    26    37    38    1
    27    38    39    1
    28    39    40    1
    29    40    41    1
    30    40    42    1
    31    40    43    1
    32    43    44   ar
    33    43    45   ar
    34    34    35   ar
    35    35    36   ar
    36     4     5    1
    37     5     6    1
    38     4     7    1
    39     7     8    1
    40    19    20   ar
    41    20    21   ar
    42    21    22    1
    43    22    13   am
    44    21    16   ar
    45     6     1    1
    46     8     1    1
    47    36    26   ar
    48    36    31   ar
    49     9    10    1
    50    22    23    1
