@<TRIPOS>MOLECULE
*****
 34 36 0 0 0
SMALL
GASTEIGER

@<TRIPOS>ATOM
      1 N         144.6810  141.4817  164.1837 N.3     1  UNL1       -0.2670
      2 C         144.3127  140.0424  164.3899 C.3     1  UNL1        0.1035
      3 C         143.4394  139.6497  165.5445 C.3     1  UNL1        0.1470
      4 C         142.5662  139.2569  166.6992 C.3     1  UNL1        0.1035
      5 N         142.0613  140.3036  167.6476 N.3     1  UNL1       -0.2673
      6 C         142.4296  141.7429  167.4414 C.3     1  UNL1        0.1035
      7 C         143.3028  142.1356  166.2868 C.3     1  UNL1        0.1470
      8 C         144.1761  142.5284  165.1321 C.3     1  UNL1        0.1035
      9 O         142.9345  140.6963  166.4930 O.3     1  UNL1       -0.3530
     10 C         145.5542  141.8745  163.0290 C.3     1  UNL1        0.0938
     11 C         144.9352  142.2765  161.7232 C.3     1  UNL1        0.1100
     12 C         142.7528  143.6673  161.9529 C.2     1  UNL1        0.4015
     13 O         143.5528  144.8446  162.4259 O.2     1  UNL1       -0.2264
     14 N         143.4439  142.3832  161.6015 N.am    1  UNL1       -0.2692
     15 H         142.9188  141.6105  161.2910 H       1  UNL1        0.1528
     16 O         141.2615  143.7741  161.8312 O.3     1  UNL1       -0.4419
     17 C         140.6975  143.0444  163.7415 C.3     1  UNL1        0.0437
     18 C         140.4521  144.3100  162.9747 C.3     1  UNL1        0.1378
     19 C         140.2068  145.5756  162.2079 C.3     1  UNL1        0.0437
     20 C         139.6427  144.8460  164.1182 C.3     1  UNL1        0.0437
     21 C         141.1880  139.9108  168.8023 C.3     1  UNL1        0.0913
     22 C         139.7563  140.3560  168.8452 C.3     1  UNL1        0.1087
     23 N         138.6843  139.4931  168.2482 N.3     1  UNL1       -0.1780
     24 H         137.7910  139.8854  168.5455 H       1  UNL1        0.1488
     25 S         138.6059  139.3158  166.7607 S.O2    1  UNL1        0.0603
     26 O         138.0884  137.9213  166.9542 O.2     1  UNL1       -0.1530
     27 O         139.1235  140.7103  166.5673 O.2     1  UNL1       -0.1530
     28 C         138.5276  139.1385  165.2733 C.ar    1  UNL1        0.1221
     29 C         138.0678  140.2728  164.4060 C.ar    1  UNL1        0.0222
     30 C         137.9895  140.0956  162.9186 C.ar    1  UNL1        0.0310
     31 C         138.3708  138.7841  162.2984 C.ar    1  UNL1        0.1402
     32 F         138.2924  138.6069  160.8111 F       1  UNL1       -0.2042
     33 C         138.8305  137.6499  163.1657 C.ar    1  UNL1        0.0310
     34 C         138.9089  137.8271  164.6532 C.ar    1  UNL1        0.0222
@<TRIPOS>BOND
     1    17    18    1
     2    18    19    1
     3    18    20    1
     4    18    16    1
     5    16    12    1
     6    12    13    2
     7    12    14   am
     8    14    11    1
     9    11    10    1
    10    10     1    1
    11     1     2    1
    12     2     3    1
    13     3     4    1
    14     4     5    1
    15     5    21    1
    16    21    22    1
    17    22    23    1
    18    23    25    1
    19    25    26    2
    20    25    27    2
    21    25    28    1
    22    28    29   ar
    23    29    30   ar
    24    30    31   ar
    25    31    32    1
    26    31    33   ar
    27    33    34   ar
    28     5     6    1
    29     6     7    1
    30     7     8    1
    31     7     9    1
    32     8     1    1
    33     9     3    1
    34    34    28   ar
    35    14    15    1
    36    23    24    1
@<TRIPOS>MOLECULE
*****
 34 36 0 0 0
SMALL
GASTEIGER

@<TRIPOS>ATOM
      1 N         139.7543  142.8425  159.7796 N.3     1  UNL1       -0.2670
      2 C         138.5752  142.7807  160.7048 C.3     1  UNL1        0.1035
      3 C         138.3377  141.5550  161.5361 C.3     1  UNL1        0.1470
      4 C         138.1001  140.3292  162.3675 C.3     1  UNL1        0.1035
      5 N         139.0415  139.1653  162.2737 N.3     1  UNL1       -0.2673
      6 C         140.2206  139.2271  161.3485 C.3     1  UNL1        0.1035
      7 C         140.4582  140.4528  160.5172 C.3     1  UNL1        0.1470
      8 C         140.6958  141.6785  159.6858 C.3     1  UNL1        0.1035
      9 O         139.2791  140.3910  161.4423 O.3     1  UNL1       -0.3530
     10 C         139.9919  144.0682  158.9483 C.3     1  UNL1        0.0938
     11 C         140.9511  145.1203  159.4204 C.3     1  UNL1        0.1100
     12 C         140.6608  145.6015  161.9570 C.2     1  UNL1        0.4015
     13 O         139.3009  146.1763  161.6923 O.2     1  UNL1       -0.2264
     14 N         141.4859  145.0735  160.8210 N.am    1  UNL1       -0.2692
     15 H         142.3785  144.6961  160.9947 H       1  UNL1        0.1528
     16 O         141.1957  145.5546  163.3576 O.3     1  UNL1       -0.4419
     17 C         143.1814  145.0242  163.8822 C.3     1  UNL1        0.0437
     18 C         141.8624  144.3103  163.8646 C.3     1  UNL1        0.1378
     19 C         140.5433  143.5964  163.8470 C.3     1  UNL1        0.0437
     20 C         142.5291  143.0659  164.3716 C.3     1  UNL1        0.0437
     21 C         138.8040  137.9396  163.1051 C.3     1  UNL1        0.0913
     22 C         139.4121  137.8310  164.4719 C.3     1  UNL1        0.1087
     23 N         138.6090  138.2060  165.6820 N.3     1  UNL1       -0.1780
     24 H         138.5494  137.3718  166.2660 H       1  UNL1        0.1488
     25 S         139.0685  139.3243  166.5700 S.O2    1  UNL1        0.0603
     26 O         138.1501  138.8415  167.6533 O.2     1  UNL1       -0.1530
     27 O         139.9868  139.8071  165.4868 O.2     1  UNL1       -0.1530
     28 C         139.5279  140.4425  167.4579 C.ar    1  UNL1        0.1221
     29 C         139.3329  140.3501  168.9424 C.ar    1  UNL1        0.0222
     30 C         139.7923  141.4683  169.8303 C.ar    1  UNL1        0.0310
     31 C         140.4469  142.6790  169.2338 C.ar    1  UNL1        0.1402
     32 F         140.9064  143.7972  170.1217 F       1  UNL1       -0.2042
     33 C         140.6419  142.7715  167.7495 C.ar    1  UNL1        0.0310
     34 C         140.1825  141.6532  166.8615 C.ar    1  UNL1        0.0222
@<TRIPOS>BOND
     1    17    18    1
     2    18    19    1
     3    18    20    1
     4    18    16    1
     5    16    12    1
     6    12    13    2
     7    12    14   am
     8    14    11    1
     9    11    10    1
    10    10     1    1
    11     1     2    1
    12     2     3    1
    13     3     4    1
    14     4     5    1
    15     5    21    1
    16    21    22    1
    17    22    23    1
    18    23    25    1
    19    25    26    2
    20    25    27    2
    21    25    28    1
    22    28    29   ar
    23    29    30   ar
    24    30    31   ar
    25    31    32    1
    26    31    33   ar
    27    33    34   ar
    28     5     6    1
    29     6     7    1
    30     7     8    1
    31     7     9    1
    32     8     1    1
    33     9     3    1
    34    34    28   ar
    35    14    15    1
    36    23    24    1
@<TRIPOS>MOLECULE
*****
 34 36 0 0 0
SMALL
GASTEIGER

@<TRIPOS>ATOM
      1 N         144.1461  141.2086  163.1132 N.3     1  UNL1       -0.2670
      2 C         143.1468  140.8629  162.0493 C.3     1  UNL1        0.1035
      3 C         142.2690  141.9319  161.4690 C.3     1  UNL1        0.1470
      4 C         141.3911  143.0009  160.8888 C.3     1  UNL1        0.1035
      5 N         141.5124  144.4155  161.3726 N.3     1  UNL1       -0.2673
      6 C         142.5116  144.7612  162.4365 C.3     1  UNL1        0.1035
      7 C         143.3895  143.6922  163.0167 C.3     1  UNL1        0.1470
      8 C         144.2674  142.6232  163.5969 C.3     1  UNL1        0.1035
      9 O         142.3903  143.3465  161.9528 O.3     1  UNL1       -0.3530
     10 C         145.0239  140.1396  163.6934 C.3     1  UNL1        0.0938
     11 C         144.4611  139.1612  164.6812 C.3     1  UNL1        0.1100
     12 C         143.2410  138.8808  166.9578 C.2     1  UNL1        0.4015
     13 O         144.1364  137.7257  167.2955 O.2     1  UNL1       -0.2264
     14 N         143.4033  139.5985  165.6507 N.am    1  UNL1       -0.2692
     15 H         142.8156  140.3566  165.4290 H       1  UNL1        0.1528
     16 O         142.1832  139.3181  167.9272 O.3     1  UNL1       -0.4419
     17 C         142.6663  141.3389  168.3549 C.3     1  UNL1        0.0437
     18 C         142.5659  140.0787  169.1621 C.3     1  UNL1        0.1378
     19 C         142.4655  138.8185  169.9694 C.3     1  UNL1        0.0437
     20 C         142.9486  140.8393  170.3971 C.3     1  UNL1        0.0437
     21 C         140.6346  145.4844  160.7923 C.3     1  UNL1        0.0913
     22 C         139.6413  146.1942  161.6639 C.3     1  UNL1        0.1087
     23 N         138.4363  145.4630  162.1770 N.3     1  UNL1       -0.1780
     24 H         137.9161  145.1430  161.3600 H       1  UNL1        0.1488
     25 S         138.6069  144.2736  163.0750 S.O2    1  UNL1        0.0603
     26 O         139.3836  145.1158  164.0431 O.2     1  UNL1       -0.1530
     27 O         137.8302  143.4313  162.1069 O.2     1  UNL1       -0.1530
     28 C         138.7774  143.0842  163.9729 C.ar    1  UNL1        0.1221
     29 C         137.8477  141.9133  163.8514 C.ar    1  UNL1        0.0222
     30 C         138.0182  140.7239  164.7493 C.ar    1  UNL1        0.0310
     31 C         139.1184  140.7054  165.7687 C.ar    1  UNL1        0.1402
     32 F         139.2889  139.5160  166.6666 F       1  UNL1       -0.2042
     33 C         140.0481  141.8762  165.8902 C.ar    1  UNL1        0.0310
     34 C         139.8776  143.0657  164.9923 C.ar    1  UNL1        0.0222
@<TRIPOS>BOND
     1    17    18    1
     2    18    19    1
     3    18    20    1
     4    18    16    1
     5    16    12    1
     6    12    13    2
     7    12    14   am
     8    14    11    1
     9    11    10    1
    10    10     1    1
    11     1     2    1
    12     2     3    1
    13     3     4    1
    14     4     5    1
    15     5    21    1
    16    21    22    1
    17    22    23    1
    18    23    25    1
    19    25    26    2
    20    25    27    2
    21    25    28    1
    22    28    29   ar
    23    29    30   ar
    24    30    31   ar
    25    31    32    1
    26    31    33   ar
    27    33    34   ar
    28     5     6    1
    29     6     7    1
    30     7     8    1
    31     7     9    1
    32     8     1    1
    33     9     3    1
    34    34    28   ar
    35    14    15    1
    36    23    24    1
@<TRIPOS>MOLECULE
*****
 34 36 0 0 0
SMALL
GASTEIGER

@<TRIPOS>ATOM
      1 N         138.6076  139.7372  164.6261 N.3     1  UNL1       -0.2670
      2 C         138.9866  140.8928  165.5041 C.3     1  UNL1        0.1035
      3 C         139.0772  142.2746  164.9276 C.3     1  UNL1        0.1470
      4 C         139.1677  143.6565  164.3511 C.3     1  UNL1        0.1035
      5 N         138.8792  143.8827  162.8966 N.3     1  UNL1       -0.2673
      6 C         138.5002  142.7271  162.0186 C.3     1  UNL1        0.1035
      7 C         138.4097  141.3453  162.5952 C.3     1  UNL1        0.1470
      8 C         138.3191  139.9634  163.1717 C.3     1  UNL1        0.1035
      9 O         138.7887  142.5009  163.4731 O.3     1  UNL1       -0.3530
     10 C         138.5171  138.3554  165.2027 C.3     1  UNL1        0.0938
     11 C         139.7050  137.4411  165.1491 C.3     1  UNL1        0.1100
     12 C         141.5126  137.8343  163.3248 C.2     1  UNL1        0.4015
     13 O         140.6381  137.1563  162.3122 O.2     1  UNL1       -0.2264
     14 N         141.0460  137.9767  164.7434 N.am    1  UNL1       -0.2692
     15 H         141.6200  138.4218  165.4080 H       1  UNL1        0.1528
     16 O         142.8536  138.3700  162.9190 O.3     1  UNL1       -0.4419
     17 C         142.0234  139.9657  161.7946 C.3     1  UNL1        0.0437
     18 C         143.0577  138.9108  161.5349 C.3     1  UNL1        0.1378
     19 C         144.0919  137.8559  161.2752 C.3     1  UNL1        0.0437
     20 C         143.2618  139.4516  160.1507 C.3     1  UNL1        0.0437
     21 C         138.9698  145.2645  162.3201 C.3     1  UNL1        0.0913
     22 C         140.2768  146.0002  162.3374 C.3     1  UNL1        0.1087
     23 N         141.4466  145.4694  161.5629 N.3     1  UNL1       -0.1780
     24 H         142.0555  146.2641  161.3677 H       1  UNL1        0.1488
     25 S         142.3119  144.3957  162.1533 S.O2    1  UNL1        0.0603
     26 O         142.0393  143.5224  160.9646 O.2     1  UNL1       -0.1530
     27 O         142.5844  145.2689  163.3420 O.2     1  UNL1       -0.1530
     28 C         143.1772  143.3220  162.7436 C.ar    1  UNL1        0.1221
     29 C         142.8260  142.7220  164.0728 C.ar    1  UNL1        0.0222
     30 C         143.6912  141.6483  164.6632 C.ar    1  UNL1        0.0310
     31 C         144.9077  141.1746  163.9244 C.ar    1  UNL1        0.1402
     32 F         145.7729  140.1010  164.5147 F       1  UNL1       -0.2042
     33 C         145.2589  141.7746  162.5952 C.ar    1  UNL1        0.0310
     34 C         144.3936  142.8483  162.0048 C.ar    1  UNL1        0.0222
@<TRIPOS>BOND
     1    17    18    1
     2    18    19    1
     3    18    20    1
     4    18    16    1
     5    16    12    1
     6    12    13    2
     7    12    14   am
     8    14    11    1
     9    11    10    1
    10    10     1    1
    11     1     2    1
    12     2     3    1
    13     3     4    1
    14     4     5    1
    15     5    21    1
    16    21    22    1
    17    22    23    1
    18    23    25    1
    19    25    26    2
    20    25    27    2
    21    25    28    1
    22    28    29   ar
    23    29    30   ar
    24    30    31   ar
    25    31    32    1
    26    31    33   ar
    27    33    34   ar
    28     5     6    1
    29     6     7    1
    30     7     8    1
    31     7     9    1
    32     8     1    1
    33     9     3    1
    34    34    28   ar
    35    14    15    1
    36    23    24    1
@<TRIPOS>MOLECULE
*****
 34 36 0 0 0
SMALL
GASTEIGER

@<TRIPOS>ATOM
      1 N         139.2858  137.5506  164.2844 N.3     1  UNL1       -0.2670
      2 C         140.7785  137.4131  164.3379 C.3     1  UNL1        0.1035
      3 C         141.5971  137.6375  163.1011 C.3     1  UNL1        0.1470
      4 C         142.4157  137.8618  161.8644 C.3     1  UNL1        0.1035
      5 N         141.7416  138.2237  160.5742 N.3     1  UNL1       -0.2673
      6 C         140.2489  138.3611  160.5208 C.3     1  UNL1        0.1035
      7 C         139.4303  138.1368  161.7575 C.3     1  UNL1        0.1470
      8 C         138.6117  137.9124  162.9943 C.3     1  UNL1        0.1035
      9 O         140.9230  137.9993  161.8109 O.3     1  UNL1       -0.3530
     10 C         138.4672  137.3262  165.5212 C.3     1  UNL1        0.0938
     11 C         138.1493  138.4770  166.4292 C.3     1  UNL1        0.1100
     12 C         139.5816  140.4248  167.3805 C.2     1  UNL1        0.4015
     13 O         139.6337  139.7362  168.7120 O.2     1  UNL1       -0.2264
     14 N         138.8394  139.7952  166.2390 N.am    1  UNL1       -0.2692
     15 H         138.8052  140.2472  165.3651 H       1  UNL1        0.1528
     16 O         140.2716  141.7430  167.1904 O.3     1  UNL1       -0.4419
     17 C         141.0317  142.8798  168.8121 C.3     1  UNL1        0.0437
     18 C         141.6315  141.9699  167.7814 C.3     1  UNL1        0.1378
     19 C         142.2312  141.0600  166.7507 C.3     1  UNL1        0.0437
     20 C         142.9914  142.1967  168.3724 C.3     1  UNL1        0.0437
     21 C         142.5602  138.4480  159.3374 C.3     1  UNL1        0.0913
     22 C         143.2707  139.7534  159.1349 C.3     1  UNL1        0.1087
     23 N         142.6668  141.0245  159.6541 N.3     1  UNL1       -0.1780
     24 H         141.6639  140.8599  159.7411 H       1  UNL1        0.1488
     25 S         143.1275  141.5938  160.9632 S.O2    1  UNL1        0.0603
     26 O         141.7527  141.4006  161.5311 O.2     1  UNL1       -0.1530
     27 O         144.5023  141.7870  160.3953 O.2     1  UNL1       -0.1530
     28 C         143.5882  142.1630  162.2722 C.ar    1  UNL1        0.1221
     29 C         142.7545  143.1912  162.9780 C.ar    1  UNL1        0.0222
     30 C         143.2152  143.7604  164.2870 C.ar    1  UNL1        0.0310
     31 C         144.5096  143.3016  164.8904 C.ar    1  UNL1        0.1402
     32 F         144.9703  143.8708  166.1995 F       1  UNL1       -0.2042
     33 C         145.3432  142.2735  164.1848 C.ar    1  UNL1        0.0310
     34 C         144.8825  141.7042  162.8756 C.ar    1  UNL1        0.0222
@<TRIPOS>BOND
     1    17    18    1
     2    18    19    1
     3    18    20    1
     4    18    16    1
     5    16    12    1
     6    12    13    2
     7    12    14   am
     8    14    11    1
     9    11    10    1
    10    10     1    1
    11     1     2    1
    12     2     3    1
    13     3     4    1
    14     4     5    1
    15     5    21    1
    16    21    22    1
    17    22    23    1
    18    23    25    1
    19    25    26    2
    20    25    27    2
    21    25    28    1
    22    28    29   ar
    23    29    30   ar
    24    30    31   ar
    25    31    32    1
    26    31    33   ar
    27    33    34   ar
    28     5     6    1
    29     6     7    1
    30     7     8    1
    31     7     9    1
    32     8     1    1
    33     9     3    1
    34    34    28   ar
    35    14    15    1
    36    23    24    1
@<TRIPOS>MOLECULE
*****
 34 36 0 0 0
SMALL
GASTEIGER

@<TRIPOS>ATOM
      1 N         138.9518  139.3705  163.3673 N.3     1  UNL1       -0.2670
      2 C         140.1728  139.3301  162.4971 C.3     1  UNL1        0.1035
      3 C         140.4482  140.4508  161.5388 C.3     1  UNL1        0.1470
      4 C         140.7236  141.5714  160.5805 C.3     1  UNL1        0.1035
      5 N         139.7780  142.7324  160.4925 N.3     1  UNL1       -0.2673
      6 C         138.5569  142.7728  161.3627 C.3     1  UNL1        0.1035
      7 C         138.2815  141.6521  162.3210 C.3     1  UNL1        0.1470
      8 C         138.0061  140.5315  163.2792 C.3     1  UNL1        0.1035
      9 O         139.5026  141.6118  161.4507 O.3     1  UNL1       -0.3530
     10 C         138.6763  138.2498  164.3256 C.3     1  UNL1        0.0938
     11 C         138.7011  138.5038  165.8037 C.3     1  UNL1        0.1100
     12 C         139.4830  139.9672  167.8030 C.2     1  UNL1        0.4015
     13 O         138.4237  139.3513  168.6681 O.2     1  UNL1       -0.2264
     14 N         139.6217  139.5434  166.3708 N.am    1  UNL1       -0.2692
     15 H         140.3170  139.9477  165.8029 H       1  UNL1        0.1528
     16 O         140.4037  141.0068  168.3701 O.3     1  UNL1       -0.4419
     17 C         139.9136  142.1113  170.1136 C.3     1  UNL1        0.0437
     18 C         140.8071  140.9444  169.8135 C.3     1  UNL1        0.1378
     19 C         141.7005  139.7775  169.5133 C.3     1  UNL1        0.0437
     20 C         141.2105  140.8820  171.2569 C.3     1  UNL1        0.0437
     21 C         140.0534  143.8530  159.5342 C.3     1  UNL1        0.0913
     22 C         141.3314  144.6314  159.6378 C.3     1  UNL1        0.1087
     23 N         141.6327  145.4168  160.8797 N.3     1  UNL1       -0.1780
     24 H         140.8133  145.9941  161.0690 H       1  UNL1        0.1488
     25 S         141.9639  144.7029  162.1567 S.O2    1  UNL1        0.0603
     26 O         143.2098  144.1543  161.5269 O.2     1  UNL1       -0.1530
     27 O         140.7180  145.2514  162.7865 O.2     1  UNL1       -0.1530
     28 C         142.2951  143.9890  163.4336 C.ar    1  UNL1        0.1221
     29 C         143.7070  143.9736  163.9399 C.ar    1  UNL1        0.0222
     30 C         144.0382  143.2597  165.2168 C.ar    1  UNL1        0.0310
     31 C         142.9574  142.5612  165.9876 C.ar    1  UNL1        0.1402
     32 F         143.2886  141.8473  167.2646 F       1  UNL1       -0.2042
     33 C         141.5456  142.5766  165.4814 C.ar    1  UNL1        0.0310
     34 C         141.2143  143.2905  164.2044 C.ar    1  UNL1        0.0222
@<TRIPOS>BOND
     1    17    18    1
     2    18    19    1
     3    18    20    1
     4    18    16    1
     5    16    12    1
     6    12    13    2
     7    12    14   am
     8    14    11    1
     9    11    10    1
    10    10     1    1
    11     1     2    1
    12     2     3    1
    13     3     4    1
    14     4     5    1
    15     5    21    1
    16    21    22    1
    17    22    23    1
    18    23    25    1
    19    25    26    2
    20    25    27    2
    21    25    28    1
    22    28    29   ar
    23    29    30   ar
    24    30    31   ar
    25    31    32    1
    26    31    33   ar
    27    33    34   ar
    28     5     6    1
    29     6     7    1
    30     7     8    1
    31     7     9    1
    32     8     1    1
    33     9     3    1
    34    34    28   ar
    35    14    15    1
    36    23    24    1
@<TRIPOS>MOLECULE
*****
 34 36 0 0 0
SMALL
GASTEIGER

@<TRIPOS>ATOM
      1 N         141.6748  138.2789  160.0173 N.3     1  UNL1       -0.2670
      2 C         140.1888  138.4717  160.0846 C.3     1  UNL1        0.1035
      3 C         139.4663  138.2841  161.3857 C.3     1  UNL1        0.1470
      4 C         138.7438  138.0966  162.6868 C.3     1  UNL1        0.1035
      5 N         139.5073  137.7163  163.9206 N.3     1  UNL1       -0.2673
      6 C         140.9933  137.5235  163.8533 C.3     1  UNL1        0.1035
      7 C         141.7158  137.7110  162.5522 C.3     1  UNL1        0.1470
      8 C         142.4383  137.8986  161.2511 C.3     1  UNL1        0.1035
      9 O         140.2298  137.9038  162.6195 O.3     1  UNL1       -0.3530
     10 C         142.3972  138.4665  158.7162 C.3     1  UNL1        0.0938
     11 C         142.8665  139.8317  158.3089 C.3     1  UNL1        0.1100
     12 C         143.6140  141.4008  160.2400 C.2     1  UNL1        0.4015
     13 O         142.1795  141.6105  160.6249 O.2     1  UNL1       -0.2264
     14 N         143.9575  140.5113  159.0820 N.am    1  UNL1       -0.2692
     15 H         144.8991  140.3737  158.8293 H       1  UNL1        0.1528
     16 O         144.7051  142.0804  161.0131 O.3     1  UNL1       -0.4419
     17 C         144.3749  143.6944  162.3495 C.3     1  UNL1        0.0437
     18 C         144.5947  142.2186  162.5026 C.3     1  UNL1        0.1378
     19 C         144.8146  140.7427  162.6558 C.3     1  UNL1        0.0437
     20 C         144.4843  142.3567  163.9922 C.3     1  UNL1        0.0437
     21 C         138.7849  137.5287  165.2217 C.3     1  UNL1        0.0913
     22 C         138.2971  138.7226  165.9876 C.3     1  UNL1        0.1087
     23 N         139.2541  139.8148  166.3635 N.3     1  UNL1       -0.1780
     24 H         140.1912  139.4149  166.3145 H       1  UNL1        0.1488
     25 S         139.2854  141.0894  165.5733 S.O2    1  UNL1        0.0603
     26 O         140.6412  141.4031  166.1329 O.2     1  UNL1       -0.1530
     27 O         137.9295  140.7757  165.0137 O.2     1  UNL1       -0.1530
     28 C         139.3166  142.3640  164.7831 C.ar    1  UNL1        0.1221
     29 C         138.0522  142.9081  164.1869 C.ar    1  UNL1        0.0222
     30 C         138.0834  144.1826  163.3968 C.ar    1  UNL1        0.0310
     31 C         139.3790  144.9133  163.2027 C.ar    1  UNL1        0.1402
     32 F         139.4102  146.1878  162.4125 F       1  UNL1       -0.2042
     33 C         140.6433  144.3693  163.7988 C.ar    1  UNL1        0.0310
     34 C         140.6122  143.0946  164.5891 C.ar    1  UNL1        0.0222
@<TRIPOS>BOND
     1    17    18    1
     2    18    19    1
     3    18    20    1
     4    18    16    1
     5    16    12    1
     6    12    13    2
     7    12    14   am
     8    14    11    1
     9    11    10    1
    10    10     1    1
    11     1     2    1
    12     2     3    1
    13     3     4    1
    14     4     5    1
    15     5    21    1
    16    21    22    1
    17    22    23    1
    18    23    25    1
    19    25    26    2
    20    25    27    2
    21    25    28    1
    22    28    29   ar
    23    29    30   ar
    24    30    31   ar
    25    31    32    1
    26    31    33   ar
    27    33    34   ar
    28     5     6    1
    29     6     7    1
    30     7     8    1
    31     7     9    1
    32     8     1    1
    33     9     3    1
    34    34    28   ar
    35    14    15    1
    36    23    24    1
@<TRIPOS>MOLECULE
*****
 34 36 0 0 0
SMALL
GASTEIGER

@<TRIPOS>ATOM
      1 N         142.4084  139.8552  159.7491 N.3     1  UNL1       -0.2670
      2 C         143.3452  140.9885  160.0454 C.3     1  UNL1        0.1035
      3 C         142.8059  142.3729  160.2519 C.3     1  UNL1        0.1470
      4 C         142.2666  143.7573  160.4584 C.3     1  UNL1        0.1035
      5 N         140.7905  144.0083  160.3685 N.3     1  UNL1       -0.2673
      6 C         139.8537  142.8749  160.0722 C.3     1  UNL1        0.1035
      7 C         140.3930  141.4905  159.8657 C.3     1  UNL1        0.1470
      8 C         140.9323  140.1062  159.6592 C.3     1  UNL1        0.1035
      9 O         141.3298  142.6239  160.1621 O.3     1  UNL1       -0.3530
     10 C         142.9477  138.4708  159.5426 C.3     1  UNL1        0.0938
     11 C         143.3078  137.6219  160.7257 C.3     1  UNL1        0.1100
     12 C         141.7861  138.0736  162.7825 C.2     1  UNL1        0.4015
     13 O         140.6260  137.4555  162.0600 O.2     1  UNL1       -0.2264
     14 N         143.1270  138.1569  162.1154 N.am    1  UNL1       -0.2692
     15 H         143.8884  138.5625  162.5896 H       1  UNL1        0.1528
     16 O         141.6053  138.6085  164.1722 O.3     1  UNL1       -0.4419
     17 C         143.0436  138.8555  165.7117 C.3     1  UNL1        0.0437
     18 C         142.4574  139.7445  164.6553 C.3     1  UNL1        0.1378
     19 C         141.8712  140.6335  163.5990 C.3     1  UNL1        0.0437
     20 C         143.3096  140.8805  165.1385 C.3     1  UNL1        0.0437
     21 C         140.2512  145.3927  160.5750 C.3     1  UNL1        0.0913
     22 C         139.7428  145.8060  161.9243 C.3     1  UNL1        0.1087
     23 N         138.5665  145.1003  162.5311 N.3     1  UNL1       -0.1780
     24 H         138.0307  144.7037  161.7590 H       1  UNL1        0.1488
     25 S         138.7841  143.9940  163.5205 S.O2    1  UNL1        0.0603
     26 O         137.6928  143.1971  162.8695 O.2     1  UNL1       -0.1530
     27 O         139.8754  144.7910  164.1715 O.2     1  UNL1       -0.1530
     28 C         139.0018  142.8879  164.5099 C.ar    1  UNL1        0.1221
     29 C         139.9236  143.0944  165.6751 C.ar    1  UNL1        0.0222
     30 C         140.1413  141.9882  166.6645 C.ar    1  UNL1        0.0310
     31 C         139.4372  140.6755  166.4887 C.ar    1  UNL1        0.1402
     32 F         139.6549  139.5693  167.4781 F       1  UNL1       -0.2042
     33 C         138.5154  140.4689  165.3236 C.ar    1  UNL1        0.0310
     34 C         138.2977  141.5751  164.3341 C.ar    1  UNL1        0.0222
@<TRIPOS>BOND
     1    17    18    1
     2    18    19    1
     3    18    20    1
     4    18    16    1
     5    16    12    1
     6    12    13    2
     7    12    14   am
     8    14    11    1
     9    11    10    1
    10    10     1    1
    11     1     2    1
    12     2     3    1
    13     3     4    1
    14     4     5    1
    15     5    21    1
    16    21    22    1
    17    22    23    1
    18    23    25    1
    19    25    26    2
    20    25    27    2
    21    25    28    1
    22    28    29   ar
    23    29    30   ar
    24    30    31   ar
    25    31    32    1
    26    31    33   ar
    27    33    34   ar
    28     5     6    1
    29     6     7    1
    30     7     8    1
    31     7     9    1
    32     8     1    1
    33     9     3    1
    34    34    28   ar
    35    14    15    1
    36    23    24    1
@<TRIPOS>MOLECULE
*****
 34 36 0 0 0
SMALL
GASTEIGER

@<TRIPOS>ATOM
      1 N         142.7776  144.2729  162.3421 N.3     1  UNL1       -0.2670
      2 C         143.3057  143.0897  161.5864 C.3     1  UNL1        0.1035
      3 C         142.4182  142.3574  160.6241 C.3     1  UNL1        0.1470
      4 C         141.5307  141.6250  159.6617 C.3     1  UNL1        0.1035
      5 N         140.1151  142.0759  159.4551 N.3     1  UNL1       -0.2673
      6 C         139.5870  143.2591  160.2107 C.3     1  UNL1        0.1035
      7 C         140.4745  143.9914  161.1731 C.3     1  UNL1        0.1470
      8 C         141.3620  144.7238  162.1354 C.3     1  UNL1        0.1035
      9 O         141.0026  142.8082  160.4174 O.3     1  UNL1       -0.3530
     10 C         143.6650  145.0052  163.3044 C.3     1  UNL1        0.0938
     11 C         144.1034  144.3400  164.5753 C.3     1  UNL1        0.1100
     12 C         143.7575  141.8168  165.0888 C.2     1  UNL1        0.4015
     13 O         145.0617  141.5015  164.4183 O.2     1  UNL1       -0.2264
     14 N         143.2783  143.2361  165.1673 N.am    1  UNL1       -0.2692
     15 H         142.4223  143.4430  165.6074 H       1  UNL1        0.1528
     16 O         142.9324  140.7128  165.6808 O.3     1  UNL1       -0.4419
     17 C         143.5018  138.6770  165.8575 C.3     1  UNL1        0.0437
     18 C         142.6702  139.4656  164.8898 C.3     1  UNL1        0.1378
     19 C         141.8386  140.2541  163.9221 C.3     1  UNL1        0.0437
     20 C         142.4079  138.2183  164.0988 C.3     1  UNL1        0.0437
     21 C         139.2276  141.3436  158.4927 C.3     1  UNL1        0.0913
     22 C         138.7447  139.9619  158.8206 C.3     1  UNL1        0.1087
     23 N         137.6067  139.7729  159.7794 N.3     1  UNL1       -0.1780
     24 H         137.1040  138.9378  159.4788 H       1  UNL1        0.1488
     25 S         137.8803  139.6096  161.2452 S.O2    1  UNL1        0.0603
     26 O         138.4898  138.2647  160.9817 O.2     1  UNL1       -0.1530
     27 O         137.2708  140.9546  161.5087 O.2     1  UNL1       -0.1530
     28 C         138.1538  139.4464  162.7110 C.ar    1  UNL1        0.1221
     29 C         137.9391  140.5988  163.6469 C.ar    1  UNL1        0.0222
     30 C         138.2126  140.4356  165.1127 C.ar    1  UNL1        0.0310
     31 C         138.7008  139.1200  165.6426 C.ar    1  UNL1        0.1402
     32 F         138.9744  138.9568  167.1083 F       1  UNL1       -0.2042
     33 C         138.9156  137.9676  164.7067 C.ar    1  UNL1        0.0310
     34 C         138.6420  138.1308  163.2409 C.ar    1  UNL1        0.0222
@<TRIPOS>BOND
     1    17    18    1
     2    18    19    1
     3    18    20    1
     4    18    16    1
     5    16    12    1
     6    12    13    2
     7    12    14   am
     8    14    11    1
     9    11    10    1
    10    10     1    1
    11     1     2    1
    12     2     3    1
    13     3     4    1
    14     4     5    1
    15     5    21    1
    16    21    22    1
    17    22    23    1
    18    23    25    1
    19    25    26    2
    20    25    27    2
    21    25    28    1
    22    28    29   ar
    23    29    30   ar
    24    30    31   ar
    25    31    32    1
    26    31    33   ar
    27    33    34   ar
    28     5     6    1
    29     6     7    1
    30     7     8    1
    31     7     9    1
    32     8     1    1
    33     9     3    1
    34    34    28   ar
    35    14    15    1
    36    23    24    1
