@<TRIPOS>MOLECULE
*****
 33 36 0 0 0
SMALL
GASTEIGER

@<TRIPOS>ATOM
      1 N         141.5422  139.2037  161.9195 N.ar    1  UNL1       -0.2900
      2 C         141.3521  138.4259  160.6512 C.ar    1  UNL1        0.0891
      3 C         142.2128  138.7159  159.4574 C.ar    1  UNL1        0.1098
      4 C         143.2635  139.7838  159.5319 C.ar    1  UNL1        0.2043
      5 O         144.1241  140.0738  158.3381 O.2     1  UNL1       -0.2863
      6 C         143.4536  140.5617  160.8003 C.ar    1  UNL1        0.0736
      7 C         144.5043  141.6296  160.8748 C.ar    1  UNL1        0.0078
      8 C         144.6943  142.4075  162.1432 C.ar    1  UNL1        0.0209
      9 C         143.8337  142.1175  163.3370 C.ar    1  UNL1        0.1005
     10 N         142.7830  141.0496  163.2625 N.ar    1  UNL1       -0.2263
     11 C         142.5929  140.2717  161.9941 C.ar    1  UNL1        0.1507
     12 C         139.9130  139.4921  165.5268 C.ar    1  UNL1        0.0014
     13 C         138.9602  138.3337  165.5009 C.ar    1  UNL1        0.0001
     14 C         138.8682  137.4654  164.2813 C.ar    1  UNL1        0.0015
     15 C         139.7288  137.7554  163.0875 C.ar    1  UNL1        0.0176
     16 C         140.6815  138.9137  163.1133 C.ar    1  UNL1        0.0654
     17 C         140.7736  139.7821  164.3330 C.ar    1  UNL1        0.0176
     18 C         140.1891  142.0970  169.1858 C.ar    1  UNL1        0.0347
     19 C         140.7284  142.5862  167.8744 C.ar    1  UNL1        0.0028
     20 C         140.6363  141.7179  166.6547 C.ar    1  UNL1        0.0001
     21 C         140.0050  140.3603  166.7465 C.ar    1  UNL1        0.0000
     22 C         139.4657  139.8711  168.0579 C.ar    1  UNL1        0.0001
     23 C         139.5577  140.7393  169.2775 C.ar    1  UNL1        0.0028
     24 C         140.2833  144.4587  170.2645 C.3     1  UNL1        0.0773
     25 C         140.2811  142.9652  170.4055 C.2     1  UNL1        0.1735
     26 O         140.3710  142.3402  171.7661 O.2     1  UNL1       -0.2913
     27 C         142.0227  137.9379  158.1890 C.2     1  UNL1        0.2504
     28 O         140.6661  137.8588  157.5539 O.2     1  UNL1       -0.2700
     29 N         143.1892  137.2392  157.5557 N.am    1  UNL1       -0.3024
     30 H         144.0796  137.2912  157.9726 H       1  UNL1        0.1497
     31 C         142.9990  136.4613  156.2874 C.3     1  UNL1        0.0720
     32 C         142.4664  135.0600  156.3397 C.3     1  UNL1        0.0213
     33 C         143.3415  137.0847  154.9668 C.3     1  UNL1        0.0213
@<TRIPOS>BOND
     1    24    25    1
     2    25    26    2
     3    25    18    1
     4    18    19   ar
     5    19    20   ar
     6    20    21   ar
     7    21    12    1
     8    12    13   ar
     9    13    14   ar
    10    14    15   ar
    11    15    16   ar
    12    16     1    1
    13     1     2   ar
    14     2     3   ar
    15     3    27    1
    16    27    28    2
    17    27    29   am
    18    29    31    1
    19    31    32    1
    20    31    33    1
    21     3     4   ar
    22     4     5    2
    23     4     6   ar
    24     6     7   ar
    25     7     8   ar
    26     8     9   ar
    27     9    10   ar
    28    10    11   ar
    29    16    17   ar
    30    21    22   ar
    31    22    23   ar
    32    23    18   ar
    33    17    12   ar
    34    11     1   ar
    35    11     6   ar
    36    29    30    1
@<TRIPOS>MOLECULE
*****
 33 36 0 0 0
SMALL
GASTEIGER

@<TRIPOS>ATOM
      1 N         140.0421  139.5191  161.6699 N.ar    1  UNL1       -0.2900
      2 C         139.0410  140.1082  160.7209 C.ar    1  UNL1        0.0891
      3 C         139.4772  140.5708  159.3623 C.ar    1  UNL1        0.1098
      4 C         140.9146  140.4443  158.9527 C.ar    1  UNL1        0.2043
      5 O         141.3509  140.9069  157.5942 O.2     1  UNL1       -0.2863
      6 C         141.9159  139.8551  159.9017 C.ar    1  UNL1        0.0736
      7 C         143.3533  139.7285  159.4921 C.ar    1  UNL1        0.0078
      8 C         144.3544  139.1394  160.4411 C.ar    1  UNL1        0.0209
      9 C         143.9181  138.6768  161.7997 C.ar    1  UNL1        0.1005
     10 N         142.4807  138.8034  162.2093 N.ar    1  UNL1       -0.2263
     11 C         141.4796  139.3925  161.2603 C.ar    1  UNL1        0.1507
     12 C         139.4032  139.4640  165.5864 C.ar    1  UNL1        0.0014
     13 C         138.7333  138.1313  165.7455 C.ar    1  UNL1        0.0001
     14 C         138.4998  137.2613  164.5462 C.ar    1  UNL1        0.0015
     15 C         138.9360  137.7239  163.1877 C.ar    1  UNL1        0.0176
     16 C         139.6058  139.0565  163.0284 C.ar    1  UNL1        0.0654
     17 C         139.8394  139.9266  164.2278 C.ar    1  UNL1        0.0176
     18 C         140.1038  142.0742  169.1844 C.ar    1  UNL1        0.0347
     19 C         139.4934  140.7142  169.3518 C.ar    1  UNL1        0.0028
     20 C         139.2599  139.8442  168.1524 C.ar    1  UNL1        0.0001
     21 C         139.6367  140.3341  166.7857 C.ar    1  UNL1        0.0000
     22 C         140.2470  141.6940  166.6183 C.ar    1  UNL1        0.0001
     23 C         140.4806  142.5641  167.8176 C.ar    1  UNL1        0.0028
     24 C         140.4179  144.4337  170.2256 C.3     1  UNL1        0.0773
     25 C         140.3373  142.9442  170.3838 C.2     1  UNL1        0.1735
     26 O         140.4902  142.3248  171.7413 O.2     1  UNL1       -0.2913
     27 C         138.4760  141.1600  158.4134 C.2     1  UNL1        0.2504
     28 O         137.9243  142.5325  158.6621 O.2     1  UNL1       -0.2700
     29 N         138.0265  140.3767  157.2157 N.am    1  UNL1       -0.3024
     30 H         138.3887  139.4759  157.0525 H       1  UNL1        0.1497
     31 C         137.0254  140.9658  156.2668 C.3     1  UNL1        0.0720
     32 C         135.5613  140.7054  156.4641 C.3     1  UNL1        0.0213
     33 C         137.4881  141.8155  155.1206 C.3     1  UNL1        0.0213
@<TRIPOS>BOND
     1    24    25    1
     2    25    26    2
     3    25    18    1
     4    18    19   ar
     5    19    20   ar
     6    20    21   ar
     7    21    12    1
     8    12    13   ar
     9    13    14   ar
    10    14    15   ar
    11    15    16   ar
    12    16     1    1
    13     1     2   ar
    14     2     3   ar
    15     3    27    1
    16    27    28    2
    17    27    29   am
    18    29    31    1
    19    31    32    1
    20    31    33    1
    21     3     4   ar
    22     4     5    2
    23     4     6   ar
    24     6     7   ar
    25     7     8   ar
    26     8     9   ar
    27     9    10   ar
    28    10    11   ar
    29    16    17   ar
    30    21    22   ar
    31    22    23   ar
    32    23    18   ar
    33    17    12   ar
    34    11     1   ar
    35    11     6   ar
    36    29    30    1
@<TRIPOS>MOLECULE
*****
 33 36 0 0 0
SMALL
GASTEIGER

@<TRIPOS>ATOM
      1 N         141.7753  141.0948  161.1523 N.ar    1  UNL1       -0.2900
      2 C         142.8347  140.8098  160.1295 C.ar    1  UNL1        0.0891
      3 C         143.2807  141.8910  159.1903 C.ar    1  UNL1        0.1098
      4 C         142.6673  143.2572  159.2739 C.ar    1  UNL1        0.2043
      5 O         143.1133  144.3384  158.3348 O.2     1  UNL1       -0.2863
      6 C         141.6077  143.5423  160.2968 C.ar    1  UNL1        0.0736
      7 C         140.9943  144.9085  160.3805 C.ar    1  UNL1        0.0078
      8 C         139.9348  145.1935  161.4033 C.ar    1  UNL1        0.0209
      9 C         139.4888  144.1123  162.3425 C.ar    1  UNL1        0.1005
     10 N         140.1023  142.7461  162.2588 N.ar    1  UNL1       -0.2263
     11 C         141.1617  142.4611  161.2360 C.ar    1  UNL1        0.1507
     12 C         140.8383  139.1930  164.5072 C.ar    1  UNL1        0.0014
     13 C         140.4372  137.8511  163.9698 C.ar    1  UNL1        0.0001
     14 C         140.4822  137.5906  162.4933 C.ar    1  UNL1        0.0015
     15 C         140.9282  138.6718  161.5541 C.ar    1  UNL1        0.0176
     16 C         141.3292  140.0136  162.0915 C.ar    1  UNL1        0.0654
     17 C         141.2843  140.2742  163.5680 C.ar    1  UNL1        0.0176
     18 C         140.7034  139.9747  168.9367 C.ar    1  UNL1        0.0347
     19 C         142.0185  139.7304  168.2579 C.ar    1  UNL1        0.0028
     20 C         142.0634  139.4698  166.7814 C.ar    1  UNL1        0.0001
     21 C         140.7933  139.4535  165.9837 C.ar    1  UNL1        0.0000
     22 C         139.4781  139.6978  166.6624 C.ar    1  UNL1        0.0001
     23 C         139.4332  139.9584  168.1389 C.ar    1  UNL1        0.0028
     24 C         141.6878  141.1211  171.0502 C.3     1  UNL1        0.0773
     25 C         140.6584  140.2353  170.4132 C.2     1  UNL1        0.1735
     26 O         139.5841  139.6100  171.2527 O.2     1  UNL1       -0.2913
     27 C         144.3403  141.6059  158.1674 C.2     1  UNL1        0.2504
     28 O         144.6297  140.1911  157.7617 O.2     1  UNL1       -0.2700
     29 N         145.1103  142.7356  157.5503 N.am    1  UNL1       -0.3024
     30 H         144.9203  143.6642  157.8166 H       1  UNL1        0.1497
     31 C         146.1698  142.4505  156.5275 C.3     1  UNL1        0.0720
     32 C         145.7807  142.0129  155.1465 C.3     1  UNL1        0.0213
     33 C         147.6184  142.6030  156.8856 C.3     1  UNL1        0.0213
@<TRIPOS>BOND
     1    24    25    1
     2    25    26    2
     3    25    18    1
     4    18    19   ar
     5    19    20   ar
     6    20    21   ar
     7    21    12    1
     8    12    13   ar
     9    13    14   ar
    10    14    15   ar
    11    15    16   ar
    12    16     1    1
    13     1     2   ar
    14     2     3   ar
    15     3    27    1
    16    27    28    2
    17    27    29   am
    18    29    31    1
    19    31    32    1
    20    31    33    1
    21     3     4   ar
    22     4     5    2
    23     4     6   ar
    24     6     7   ar
    25     7     8   ar
    26     8     9   ar
    27     9    10   ar
    28    10    11   ar
    29    16    17   ar
    30    21    22   ar
    31    22    23   ar
    32    23    18   ar
    33    17    12   ar
    34    11     1   ar
    35    11     6   ar
    36    29    30    1
@<TRIPOS>MOLECULE
*****
 33 36 0 0 0
SMALL
GASTEIGER

@<TRIPOS>ATOM
      1 N         139.0460  141.0281  161.2562 N.ar    1  UNL1       -0.2900
      2 C         138.3597  140.5717  160.0030 C.ar    1  UNL1        0.0891
      3 C         138.3623  141.4472  158.7850 C.ar    1  UNL1        0.1098
      4 C         139.0511  142.7792  158.8203 C.ar    1  UNL1        0.2043
      5 O         139.0536  143.6548  157.6024 O.2     1  UNL1       -0.2863
      6 C         139.7374  143.2357  160.0736 C.ar    1  UNL1        0.0736
      7 C         140.4262  144.5677  160.1089 C.ar    1  UNL1        0.0078
      8 C         141.1125  145.0241  161.3622 C.ar    1  UNL1        0.0209
      9 C         141.1099  144.1486  162.5801 C.ar    1  UNL1        0.1005
     10 N         140.4211  142.8166  162.5448 N.ar    1  UNL1       -0.2263
     11 C         139.7348  142.3602  161.2916 C.ar    1  UNL1        0.1507
     12 C         139.3043  139.8716  165.0438 C.ar    1  UNL1        0.0014
     13 C         139.0383  138.4014  164.9101 C.ar    1  UNL1        0.0001
     14 C         138.7749  137.8069  163.5584 C.ar    1  UNL1        0.0015
     15 C         138.7774  138.6824  162.3405 C.ar    1  UNL1        0.0176
     16 C         139.0434  140.1525  162.4742 C.ar    1  UNL1        0.0654
     17 C         139.3068  140.7472  163.8259 C.ar    1  UNL1        0.0176
     18 C         140.0945  141.6554  169.0989 C.ar    1  UNL1        0.0347
     19 C         139.4073  140.3269  168.9849 C.ar    1  UNL1        0.0028
     20 C         139.1439  139.7324  167.6331 C.ar    1  UNL1        0.0001
     21 C         139.5677  140.4662  166.3955 C.ar    1  UNL1        0.0000
     22 C         140.2549  141.7946  166.5095 C.ar    1  UNL1        0.0001
     23 C         140.5183  142.3892  167.8612 C.ar    1  UNL1        0.0028
     24 C         141.6392  141.9436  171.1680 C.3     1  UNL1        0.0773
     25 C         140.3579  142.2499  170.4506 C.2     1  UNL1        0.1735
     26 O         139.3401  143.1508  171.0850 O.2     1  UNL1       -0.2913
     27 C         137.6760  140.9907  157.5317 C.2     1  UNL1        0.2504
     28 O         138.0470  139.6774  156.9093 O.2     1  UNL1       -0.2700
     29 N         136.6186  141.8475  156.9010 N.am    1  UNL1       -0.3024
     30 H         136.3751  142.7095  157.3096 H       1  UNL1        0.1497
     31 C         135.9324  141.3910  155.6478 C.3     1  UNL1        0.0720
     32 C         134.5738  140.7598  155.7240 C.3     1  UNL1        0.0213
     33 C         136.6047  141.5658  154.3183 C.3     1  UNL1        0.0213
@<TRIPOS>BOND
     1    24    25    1
     2    25    26    2
     3    25    18    1
     4    18    19   ar
     5    19    20   ar
     6    20    21   ar
     7    21    12    1
     8    12    13   ar
     9    13    14   ar
    10    14    15   ar
    11    15    16   ar
    12    16     1    1
    13     1     2   ar
    14     2     3   ar
    15     3    27    1
    16    27    28    2
    17    27    29   am
    18    29    31    1
    19    31    32    1
    20    31    33    1
    21     3     4   ar
    22     4     5    2
    23     4     6   ar
    24     6     7   ar
    25     7     8   ar
    26     8     9   ar
    27     9    10   ar
    28    10    11   ar
    29    16    17   ar
    30    21    22   ar
    31    22    23   ar
    32    23    18   ar
    33    17    12   ar
    34    11     1   ar
    35    11     6   ar
    36    29    30    1
@<TRIPOS>MOLECULE
*****
 33 36 0 0 0
SMALL
GASTEIGER

@<TRIPOS>ATOM
      1 N         140.8909  144.3885  158.5425 N.ar    1  UNL1       -0.2900
      2 C         140.4947  144.6331  159.9684 C.ar    1  UNL1        0.0891
      3 C         141.3892  144.1797  161.0838 C.ar    1  UNL1        0.1098
      4 C         142.6800  143.4816  160.7734 C.ar    1  UNL1        0.2043
      5 O         143.5745  143.0281  161.8888 O.2     1  UNL1       -0.2863
      6 C         143.0763  143.2369  159.3475 C.ar    1  UNL1        0.0736
      7 C         144.3671  142.5388  159.0370 C.ar    1  UNL1        0.0078
      8 C         144.7634  142.2941  157.6112 C.ar    1  UNL1        0.0209
      9 C         143.8689  142.7476  156.4958 C.ar    1  UNL1        0.1005
     10 N         142.5781  143.4457  156.8062 N.ar    1  UNL1       -0.2263
     11 C         142.1818  143.6904  158.2320 C.ar    1  UNL1        0.1507
     12 C         139.1447  146.7216  155.8485 C.ar    1  UNL1        0.0014
     13 C         138.2073  145.7490  155.1963 C.ar    1  UNL1        0.0001
     14 C         138.1645  144.3229  155.6594 C.ar    1  UNL1        0.0015
     15 C         139.0591  143.8695  156.7749 C.ar    1  UNL1        0.0176
     16 C         139.9964  144.8420  157.4271 C.ar    1  UNL1        0.0654
     17 C         140.0393  146.2681  156.9640 C.ar    1  UNL1        0.0176
     18 C         139.2732  150.9998  154.4590 C.ar    1  UNL1        0.0347
     19 C         139.9703  149.9330  153.6678 C.ar    1  UNL1        0.0028
     20 C         139.9274  148.5069  154.1310 C.ar    1  UNL1        0.0001
     21 C         139.1875  148.1476  155.3854 C.ar    1  UNL1        0.0000
     22 C         138.4904  149.2144  156.1766 C.ar    1  UNL1        0.0001
     23 C         138.5332  150.6405  155.7134 C.ar    1  UNL1        0.0028
     24 C         138.1409  153.0154  153.2735 C.3     1  UNL1        0.0773
     25 C         139.3160  152.4258  153.9958 C.2     1  UNL1        0.1735
     26 O         140.5338  153.2623  154.2550 O.2     1  UNL1       -0.2913
     27 C         140.9929  144.4243  162.5097 C.2     1  UNL1        0.2504
     28 O         141.6088  145.5576  163.2754 O.2     1  UNL1       -0.2700
     29 N         139.9806  143.5358  163.1698 N.am    1  UNL1       -0.3024
     30 H         139.5764  142.7920  162.6672 H       1  UNL1        0.1497
     31 C         139.5844  143.7805  164.5956 C.3     1  UNL1        0.0720
     32 C         140.3657  143.1497  165.7101 C.3     1  UNL1        0.0213
     33 C         138.4068  144.6559  164.9071 C.3     1  UNL1        0.0213
@<TRIPOS>BOND
     1    24    25    1
     2    25    26    2
     3    25    18    1
     4    18    19   ar
     5    19    20   ar
     6    20    21   ar
     7    21    12    1
     8    12    13   ar
     9    13    14   ar
    10    14    15   ar
    11    15    16   ar
    12    16     1    1
    13     1     2   ar
    14     2     3   ar
    15     3    27    1
    16    27    28    2
    17    27    29   am
    18    29    31    1
    19    31    32    1
    20    31    33    1
    21     3     4   ar
    22     4     5    2
    23     4     6   ar
    24     6     7   ar
    25     7     8   ar
    26     8     9   ar
    27     9    10   ar
    28    10    11   ar
    29    16    17   ar
    30    21    22   ar
    31    22    23   ar
    32    23    18   ar
    33    17    12   ar
    34    11     1   ar
    35    11     6   ar
    36    29    30    1
@<TRIPOS>MOLECULE
*****
 33 36 0 0 0
SMALL
GASTEIGER

@<TRIPOS>ATOM
      1 N         143.4077  141.7934  161.5345 N.ar    1  UNL1       -0.2900
      2 C         144.1820  141.4137  160.3072 C.ar    1  UNL1        0.0891
      3 C         144.0011  142.1898  159.0364 C.ar    1  UNL1        0.1098
      4 C         143.0460  143.3455  158.9929 C.ar    1  UNL1        0.2043
      5 O         142.8652  144.1216  157.7220 O.2     1  UNL1       -0.2863
      6 C         142.2717  143.7253  160.2202 C.ar    1  UNL1        0.0736
      7 C         141.3166  144.8811  160.1767 C.ar    1  UNL1        0.0078
      8 C         140.5424  145.2608  161.4040 C.ar    1  UNL1        0.0209
      9 C         140.7233  144.4847  162.6749 C.ar    1  UNL1        0.1005
     10 N         141.6783  143.3289  162.7184 N.ar    1  UNL1       -0.2263
     11 C         142.4526  142.9492  161.4911 C.ar    1  UNL1        0.1507
     12 C         142.9120  140.5450  165.2689 C.ar    1  UNL1        0.0014
     13 C         143.9503  139.4651  165.3470 C.ar    1  UNL1        0.0001
     14 C         144.8077  139.1614  164.1542 C.ar    1  UNL1        0.0015
     15 C         144.6268  139.9375  162.8834 C.ar    1  UNL1        0.0176
     16 C         143.5886  141.0173  162.8053 C.ar    1  UNL1        0.0654
     17 C         142.7312  141.3210  163.9981 C.ar    1  UNL1        0.0176
     18 C         140.3399  141.4561  168.8472 C.ar    1  UNL1        0.0347
     19 C         140.5289  142.4897  167.7767 C.ar    1  UNL1        0.0028
     20 C         141.3863  142.1859  166.5839 C.ar    1  UNL1        0.0001
     21 C         142.0547  140.8487  166.4617 C.ar    1  UNL1        0.0000
     22 C         141.8657  139.8151  167.5322 C.ar    1  UNL1        0.0001
     23 C         141.0084  140.1188  168.7249 C.ar    1  UNL1        0.0028
     24 C         139.7115  143.0155  170.8280 C.3     1  UNL1        0.0773
     25 C         139.4826  141.7598  170.0399 C.2     1  UNL1        0.1735
     26 O         138.3963  140.8079  170.4447 O.2     1  UNL1       -0.2913
     27 C         144.7754  141.8100  157.8090 C.2     1  UNL1        0.2504
     28 O         144.8095  140.3804  157.3563 O.2     1  UNL1       -0.2700
     29 N         145.5155  142.8599  157.0345 N.am    1  UNL1       -0.3024
     30 H         145.4931  143.7982  157.3316 H       1  UNL1        0.1497
     31 C         146.2897  142.4801  155.8072 C.3     1  UNL1        0.0720
     32 C         145.5981  142.4017  154.4784 C.3     1  UNL1        0.0213
     33 C         147.7557  142.1788  155.9086 C.3     1  UNL1        0.0213
@<TRIPOS>BOND
     1    24    25    1
     2    25    26    2
     3    25    18    1
     4    18    19   ar
     5    19    20   ar
     6    20    21   ar
     7    21    12    1
     8    12    13   ar
     9    13    14   ar
    10    14    15   ar
    11    15    16   ar
    12    16     1    1
    13     1     2   ar
    14     2     3   ar
    15     3    27    1
    16    27    28    2
    17    27    29   am
    18    29    31    1
    19    31    32    1
    20    31    33    1
    21     3     4   ar
    22     4     5    2
    23     4     6   ar
    24     6     7   ar
    25     7     8   ar
    26     8     9   ar
    27     9    10   ar
    28    10    11   ar
    29    16    17   ar
    30    21    22   ar
    31    22    23   ar
    32    23    18   ar
    33    17    12   ar
    34    11     1   ar
    35    11     6   ar
    36    29    30    1
@<TRIPOS>MOLECULE
*****
 33 36 0 0 0
SMALL
GASTEIGER

@<TRIPOS>ATOM
      1 N         143.3253  142.0731  159.1533 N.ar    1  UNL1       -0.2900
      2 C         144.5833  142.5631  158.4995 C.ar    1  UNL1        0.0891
      3 C         145.2407  141.7431  157.4293 C.ar    1  UNL1        0.1098
      4 C         144.6402  140.4332  157.0128 C.ar    1  UNL1        0.2043
      5 O         145.2977  139.6133  155.9426 O.2     1  UNL1       -0.2863
      6 C         143.3822  139.9432  157.6666 C.ar    1  UNL1        0.0736
      7 C         142.7817  138.6333  157.2501 C.ar    1  UNL1        0.0078
      8 C         141.5237  138.1433  157.9039 C.ar    1  UNL1        0.0209
      9 C         140.8663  138.9633  158.9741 C.ar    1  UNL1        0.1005
     10 N         141.4668  140.2732  159.3906 N.ar    1  UNL1       -0.2263
     11 C         142.7247  140.7631  158.7368 C.ar    1  UNL1        0.1507
     12 C         142.2297  143.3749  162.7387 C.ar    1  UNL1        0.0014
     13 C         141.3529  144.5329  162.3641 C.ar    1  UNL1        0.0001
     14 C         141.1337  144.8710  160.9192 C.ar    1  UNL1        0.0015
     15 C         141.7912  144.0511  159.8490 C.ar    1  UNL1        0.0176
     16 C         142.6679  142.8930  160.2236 C.ar    1  UNL1        0.0654
     17 C         142.8871  142.5549  161.6685 C.ar    1  UNL1        0.0176
     18 C         142.8873  142.3606  167.0733 C.ar    1  UNL1        0.0347
     19 C         141.5301  142.1844  166.4594 C.ar    1  UNL1        0.0028
     20 C         141.3109  142.5225  165.0145 C.ar    1  UNL1        0.0001
     21 C         142.4489  143.0368  164.1836 C.ar    1  UNL1        0.0000
     22 C         143.8061  143.2129  164.7975 C.ar    1  UNL1        0.0001
     23 C         144.0253  142.8749  166.2423 C.ar    1  UNL1        0.0028
     24 C         142.3907  140.8561  169.1325 C.3     1  UNL1        0.0773
     25 C         143.1065  142.0225  168.5181 C.2     1  UNL1        0.1735
     26 O         144.0415  142.8507  169.3487 O.2     1  UNL1       -0.2913
     27 C         146.4987  142.2331  156.7755 C.2     1  UNL1        0.2504
     28 O         147.4866  143.0425  157.5623 O.2     1  UNL1       -0.2700
     29 N         146.7689  141.9137  155.3351 N.am    1  UNL1       -0.3024
     30 H         146.1205  141.3825  154.8187 H       1  UNL1        0.1497
     31 C         148.0268  142.4037  154.6814 C.3     1  UNL1        0.0720
     32 C         147.9705  143.5403  153.7041 C.3     1  UNL1        0.0213
     33 C         149.3411  141.7572  155.0049 C.3     1  UNL1        0.0213
@<TRIPOS>BOND
     1    24    25    1
     2    25    26    2
     3    25    18    1
     4    18    19   ar
     5    19    20   ar
     6    20    21   ar
     7    21    12    1
     8    12    13   ar
     9    13    14   ar
    10    14    15   ar
    11    15    16   ar
    12    16     1    1
    13     1     2   ar
    14     2     3   ar
    15     3    27    1
    16    27    28    2
    17    27    29   am
    18    29    31    1
    19    31    32    1
    20    31    33    1
    21     3     4   ar
    22     4     5    2
    23     4     6   ar
    24     6     7   ar
    25     7     8   ar
    26     8     9   ar
    27     9    10   ar
    28    10    11   ar
    29    16    17   ar
    30    21    22   ar
    31    22    23   ar
    32    23    18   ar
    33    17    12   ar
    34    11     1   ar
    35    11     6   ar
    36    29    30    1
@<TRIPOS>MOLECULE
*****
 33 36 0 0 0
SMALL
GASTEIGER

@<TRIPOS>ATOM
      1 N         140.8767  141.6460  161.3266 N.ar    1  UNL1       -0.2900
      2 C         140.9590  142.7443  160.3083 C.ar    1  UNL1        0.0891
      3 C         141.9618  142.6619  159.1958 C.ar    1  UNL1        0.1098
      4 C         142.8822  141.4813  159.1016 C.ar    1  UNL1        0.2043
      5 O         143.8850  141.3989  157.9891 O.2     1  UNL1       -0.2863
      6 C         142.7999  140.3830  160.1200 C.ar    1  UNL1        0.0736
      7 C         143.7203  139.2023  160.0258 C.ar    1  UNL1        0.0078
      8 C         143.6380  138.1041  161.0441 C.ar    1  UNL1        0.0209
      9 C         142.6352  138.1865  162.1566 C.ar    1  UNL1        0.1005
     10 N         141.7148  139.3671  162.2508 N.ar    1  UNL1       -0.2263
     11 C         141.7971  140.4653  161.2325 C.ar    1  UNL1        0.1507
     12 C         139.3261  141.7321  164.9788 C.ar    1  UNL1        0.0014
     13 C         137.8683  141.8931  164.6641 C.ar    1  UNL1        0.0001
     14 C         137.4134  141.9717  163.2370 C.ar    1  UNL1        0.0015
     15 C         138.4162  141.8894  162.1245 C.ar    1  UNL1        0.0176
     16 C         139.8739  141.7284  162.4391 C.ar    1  UNL1        0.0654
     17 C         140.3289  141.6498  163.8663 C.ar    1  UNL1        0.0176
     18 C         140.6910  141.4963  169.2604 C.ar    1  UNL1        0.0347
     19 C         140.0798  140.2957  168.6008 C.ar    1  UNL1        0.0028
     20 C         139.6248  140.3744  167.1736 C.ar    1  UNL1        0.0001
     21 C         139.7811  141.6535  166.4060 C.ar    1  UNL1        0.0000
     22 C         140.3923  142.8541  167.0655 C.ar    1  UNL1        0.0001
     23 C         140.8473  142.7755  168.4927 C.ar    1  UNL1        0.0028
     24 C         142.3154  140.5533  171.0554 C.3     1  UNL1        0.0773
     25 C         141.1460  141.4177  170.6875 C.2     1  UNL1        0.1735
     26 O         140.4315  142.2034  171.7468 O.2     1  UNL1       -0.2913
     27 C         142.0441  143.7603  158.1775 C.2     1  UNL1        0.2504
     28 O         142.4211  145.1490  158.6010 O.2     1  UNL1       -0.2700
     29 N         141.7495  143.4699  156.7357 N.am    1  UNL1       -0.3024
     30 H         141.5021  142.5584  156.4577 H       1  UNL1        0.1497
     31 C         141.8318  144.5682  155.7175 C.3     1  UNL1        0.0720
     32 C         140.6936  145.5326  155.5608 C.3     1  UNL1        0.0213
     33 C         143.0524  144.7022  154.8558 C.3     1  UNL1        0.0213
@<TRIPOS>BOND
     1    24    25    1
     2    25    26    2
     3    25    18    1
     4    18    19   ar
     5    19    20   ar
     6    20    21   ar
     7    21    12    1
     8    12    13   ar
     9    13    14   ar
    10    14    15   ar
    11    15    16   ar
    12    16     1    1
    13     1     2   ar
    14     2     3   ar
    15     3    27    1
    16    27    28    2
    17    27    29   am
    18    29    31    1
    19    31    32    1
    20    31    33    1
    21     3     4   ar
    22     4     5    2
    23     4     6   ar
    24     6     7   ar
    25     7     8   ar
    26     8     9   ar
    27     9    10   ar
    28    10    11   ar
    29    16    17   ar
    30    21    22   ar
    31    22    23   ar
    32    23    18   ar
    33    17    12   ar
    34    11     1   ar
    35    11     6   ar
    36    29    30    1
@<TRIPOS>MOLECULE
*****
 33 36 0 0 0
SMALL
GASTEIGER

@<TRIPOS>ATOM
      1 N         139.7097  140.7368  164.0909 N.ar    1  UNL1       -0.2900
      2 C         140.0171  140.1355  165.4303 C.ar    1  UNL1        0.0891
      3 C         140.1695  141.0198  166.6322 C.ar    1  UNL1        0.1098
      4 C         140.0145  142.5054  166.4948 C.ar    1  UNL1        0.2043
      5 O         140.1669  143.3898  167.6968 O.2     1  UNL1       -0.2863
      6 C         139.7071  143.1068  165.1554 C.ar    1  UNL1        0.0736
      7 C         139.5520  144.5924  165.0180 C.ar    1  UNL1        0.0078
      8 C         139.2446  145.1936  163.6787 C.ar    1  UNL1        0.0209
      9 C         139.0922  144.3093  162.4767 C.ar    1  UNL1        0.1005
     10 N         139.2473  142.8237  162.6141 N.ar    1  UNL1       -0.2263
     11 C         139.5547  142.2224  163.9535 C.ar    1  UNL1        0.1507
     12 C         140.3849  139.0650  160.5554 C.ar    1  UNL1        0.0014
     13 C         139.2526  138.0838  160.4850 C.ar    1  UNL1        0.0001
     14 C         138.2726  137.9869  161.6165 C.ar    1  UNL1        0.0015
     15 C         138.4250  138.8712  162.8184 C.ar    1  UNL1        0.0176
     16 C         139.5573  139.8524  162.8889 C.ar    1  UNL1        0.0654
     17 C         140.5373  139.9494  161.7574 C.ar    1  UNL1        0.0176
     18 C         143.3248  139.3557  157.1609 C.ar    1  UNL1        0.0347
     19 C         142.1866  138.3816  157.0860 C.ar    1  UNL1        0.0028
     20 C         141.2066  138.2847  158.2176 C.ar    1  UNL1        0.0001
     21 C         141.3649  139.1619  159.4239 C.ar    1  UNL1        0.0000
     22 C         142.5030  140.1361  159.4988 C.ar    1  UNL1        0.0001
     23 C         143.4830  140.2330  158.3673 C.ar    1  UNL1        0.0028
     24 C         144.4135  140.7223  155.2381 C.3     1  UNL1        0.0773
     25 C         144.3047  139.4526  156.0294 C.2     1  UNL1        0.1735
     26 O         145.1758  138.2798  155.6891 O.2     1  UNL1       -0.2913
     27 C         140.4769  140.4185  167.9716 C.2     1  UNL1        0.2504
     28 O         139.4343  139.6138  168.6896 O.2     1  UNL1       -0.2700
     29 N         141.8269  140.6218  168.5930 N.am    1  UNL1       -0.3024
     30 H         142.5112  141.1499  168.1218 H       1  UNL1        0.1497
     31 C         142.1343  140.0205  169.9324 C.3     1  UNL1        0.0720
     32 C         142.6728  138.6233  170.0215 C.3     1  UNL1        0.0213
     33 C         141.9032  140.8163  171.1827 C.3     1  UNL1        0.0213
@<TRIPOS>BOND
     1    24    25    1
     2    25    26    2
     3    25    18    1
     4    18    19   ar
     5    19    20   ar
     6    20    21   ar
     7    21    12    1
     8    12    13   ar
     9    13    14   ar
    10    14    15   ar
    11    15    16   ar
    12    16     1    1
    13     1     2   ar
    14     2     3   ar
    15     3    27    1
    16    27    28    2
    17    27    29   am
    18    29    31    1
    19    31    32    1
    20    31    33    1
    21     3     4   ar
    22     4     5    2
    23     4     6   ar
    24     6     7   ar
    25     7     8   ar
    26     8     9   ar
    27     9    10   ar
    28    10    11   ar
    29    16    17   ar
    30    21    22   ar
    31    22    23   ar
    32    23    18   ar
    33    17    12   ar
    34    11     1   ar
    35    11     6   ar
    36    29    30    1
