@<TRIPOS>MOLECULE
*****
 35 38 0 0 0
SMALL
GASTEIGER

@<TRIPOS>ATOM
      1 N         144.0327  139.7660  163.4191 N.3     1  UNL1       -0.2653
      2 C         142.9709  139.3489  164.3930 C.3     1  UNL1        0.1036
      3 C         141.6328  138.8911  163.8931 C.3     1  UNL1        0.1470
      4 C         140.2947  138.4333  163.3933 C.3     1  UNL1        0.1035
      5 N         140.0184  138.3926  161.9195 N.3     1  UNL1       -0.2673
      6 C         141.0803  138.8097  160.9456 C.3     1  UNL1        0.1035
      7 C         142.4184  139.2675  161.4455 C.3     1  UNL1        0.1470
      8 C         143.7564  139.7254  161.9453 C.3     1  UNL1        0.1036
      9 O         141.3566  138.8504  162.4194 O.3     1  UNL1       -0.3530
     10 C         145.3709  140.2239  163.9190 C.3     1  UNL1        0.1202
     11 C         145.8035  141.6448  163.7100 C.3     1  UNL1        0.2226
     12 O         145.1227  142.7536  164.4565 O.3     1  UNL1       -0.4740
     13 C         141.6372  144.9091  162.5977 C.ar    1  UNL1        0.0686
     14 C         142.1196  143.6161  162.0097 C.ar    1  UNL1        0.0134
     15 C         143.2814  142.8977  162.6293 C.ar    1  UNL1        0.0376
     16 C         143.9609  143.4721  163.8369 C.ar    1  UNL1        0.1387
     17 C         143.4785  144.7649  164.4249 C.ar    1  UNL1        0.0376
     18 C         142.3167  145.4835  163.8053 C.ar    1  UNL1        0.0134
     19 N         139.3136  146.3460  161.3585 N.1     1  UNL1       -0.1908
     20 C         140.4754  145.6275  161.9781 C.1     1  UNL1        0.1004
     21 C         138.6803  137.9348  161.4196 C.3     1  UNL1        0.0913
     22 C         137.5016  138.8608  161.4761 C.3     1  UNL1        0.1087
     23 N         137.6743  140.3153  161.1525 N.3     1  UNL1       -0.1780
     24 H         136.7814  140.6431  160.7842 H       1  UNL1        0.1488
     25 S         138.0796  141.2797  162.2275 S.O2    1  UNL1        0.0603
     26 O         138.7905  142.1184  161.2071 O.2     1  UNL1       -0.1530
     27 O         137.3687  140.4411  163.2479 O.2     1  UNL1       -0.1530
     28 C         138.4848  142.2442  163.3026 C.ar    1  UNL1        0.1226
     29 C         137.7387  143.5343  163.4729 C.ar    1  UNL1        0.0199
     30 C         138.1439  144.4987  164.5479 C.ar    1  UNL1        0.0021
     31 C         139.2951  144.1730  165.4526 C.ar    1  UNL1        0.0104
     32 C         140.0412  142.8829  165.2823 C.ar    1  UNL1        0.0698
     33 C         139.6360  141.9185  164.2073 C.ar    1  UNL1        0.0302
     34 C         141.1925  142.5573  166.1871 C.1     1  UNL1        0.1005
     35 N         142.3437  142.2317  167.0918 N.1     1  UNL1       -0.1908
@<TRIPOS>BOND
     1    19    20    3
     2    20    13    1
     3    13    14   ar
     4    14    15   ar
     5    15    16   ar
     6    16    12    1
     7    12    11    1
     8    11    10    1
     9    10     1    1
    10     1     2    1
    11     2     3    1
    12     3     4    1
    13     4     5    1
    14     5    21    1
    15    21    22    1
    16    22    23    1
    17    23    25    1
    18    25    26    2
    19    25    27    2
    20    25    28    1
    21    28    29   ar
    22    29    30   ar
    23    30    31   ar
    24    31    32   ar
    25    32    34    1
    26    34    35    3
    27    32    33   ar
    28     5     6    1
    29     6     7    1
    30     7     8    1
    31     7     9    1
    32    16    17   ar
    33    17    18   ar
    34    18    13   ar
    35     8     1    1
    36     9     3    1
    37    33    28   ar
    38    23    24    1
@<TRIPOS>MOLECULE
*****
 35 38 0 0 0
SMALL
GASTEIGER

@<TRIPOS>ATOM
      1 N         141.0411  144.1257  160.5121 N.3     1  UNL1       -0.2653
      2 C         140.3014  142.9759  159.8950 C.3     1  UNL1        0.1036
      3 C         140.9360  141.6178  159.8418 C.3     1  UNL1        0.1470
      4 C         141.5706  140.2597  159.7885 C.3     1  UNL1        0.1035
      5 N         142.9448  140.0513  160.3524 N.3     1  UNL1       -0.2673
      6 C         143.6845  141.2012  160.9696 C.3     1  UNL1        0.1035
      7 C         143.0499  142.5593  161.0228 C.3     1  UNL1        0.1470
      8 C         142.4154  143.9173  161.0760 C.3     1  UNL1        0.1036
      9 O         142.3102  141.4095  160.4057 O.3     1  UNL1       -0.3530
     10 C         140.4065  145.4839  160.5653 C.3     1  UNL1        0.1202
     11 C         139.8545  146.0035  161.8596 C.3     1  UNL1        0.2226
     12 O         138.5382  145.4972  162.3707 O.3     1  UNL1       -0.4740
     13 C         138.3319  141.5636  164.5464 C.ar    1  UNL1        0.0686
     14 C         139.1485  142.6895  165.1082 C.ar    1  UNL1        0.0134
     15 C         139.2173  144.0007  164.3829 C.ar    1  UNL1        0.0376
     16 C         138.4694  144.1861  163.0959 C.ar    1  UNL1        0.1387
     17 C         137.6529  143.0602  162.5341 C.ar    1  UNL1        0.0376
     18 C         137.5841  141.7489  163.2593 C.ar    1  UNL1        0.0134
     19 N         138.1944  138.9412  165.9968 N.1     1  UNL1       -0.1908
     20 C         138.2631  140.2524  165.2716 C.1     1  UNL1        0.1004
     21 C         143.5794  138.6933  160.2992 C.3     1  UNL1        0.0913
     22 C         143.8672  137.9495  161.5698 C.3     1  UNL1        0.1087
     23 N         142.7926  137.7872  162.6036 N.3     1  UNL1       -0.1780
     24 H         142.9468  136.8827  163.0491 H       1  UNL1        0.1488
     25 S         142.6542  138.7949  163.7060 S.O2    1  UNL1        0.0603
     26 O         144.1475  138.9086  163.7896 O.2     1  UNL1       -0.1530
     27 O         141.1609  138.6813  163.6224 O.2     1  UNL1       -0.1530
     28 C         142.5158  139.8027  164.8085 C.ar    1  UNL1        0.1226
     29 C         143.1451  141.1572  164.6698 C.ar    1  UNL1        0.0199
     30 C         143.0067  142.1649  165.7722 C.ar    1  UNL1        0.0021
     31 C         142.2389  141.8181  167.0133 C.ar    1  UNL1        0.0104
     32 C         141.6096  140.4636  167.1519 C.ar    1  UNL1        0.0698
     33 C         141.7481  139.4559  166.0496 C.ar    1  UNL1        0.0302
     34 C         140.8419  140.1168  168.3931 C.1     1  UNL1        0.1005
     35 N         140.0742  139.7701  169.6342 N.1     1  UNL1       -0.1908
@<TRIPOS>BOND
     1    19    20    3
     2    20    13    1
     3    13    14   ar
     4    14    15   ar
     5    15    16   ar
     6    16    12    1
     7    12    11    1
     8    11    10    1
     9    10     1    1
    10     1     2    1
    11     2     3    1
    12     3     4    1
    13     4     5    1
    14     5    21    1
    15    21    22    1
    16    22    23    1
    17    23    25    1
    18    25    26    2
    19    25    27    2
    20    25    28    1
    21    28    29   ar
    22    29    30   ar
    23    30    31   ar
    24    31    32   ar
    25    32    34    1
    26    34    35    3
    27    32    33   ar
    28     5     6    1
    29     6     7    1
    30     7     8    1
    31     7     9    1
    32    16    17   ar
    33    17    18   ar
    34    18    13   ar
    35     8     1    1
    36     9     3    1
    37    33    28   ar
    38    23    24    1
@<TRIPOS>MOLECULE
*****
 35 38 0 0 0
SMALL
GASTEIGER

@<TRIPOS>ATOM
      1 N         141.4043  144.4693  162.4504 N.3     1  UNL1       -0.2653
      2 C         142.2200  144.6290  163.6990 C.3     1  UNL1        0.1036
      3 C         143.1475  143.5334  164.1342 C.3     1  UNL1        0.1470
      4 C         144.0749  142.4377  164.5694 C.3     1  UNL1        0.1035
      5 N         144.1866  141.1824  163.7560 N.3     1  UNL1       -0.2673
      6 C         143.3708  141.0226  162.5074 C.3     1  UNL1        0.1035
      7 C         142.4433  142.1183  162.0722 C.3     1  UNL1        0.1470
      8 C         141.5159  143.2139  161.6370 C.3     1  UNL1        0.1036
      9 O         143.2591  142.2780  163.3208 O.3     1  UNL1       -0.3530
     10 C         140.4768  145.5649  162.0151 C.3     1  UNL1        0.1202
     11 C         139.0846  145.6334  162.5693 C.3     1  UNL1        0.2226
     12 O         138.0897  144.5626  162.2323 O.3     1  UNL1       -0.4740
     13 C         138.1739  140.6393  164.4346 C.ar    1  UNL1        0.0686
     14 C         138.6264  141.8943  165.1204 C.ar    1  UNL1        0.0134
     15 C         138.5983  143.2020  164.3863 C.ar    1  UNL1        0.0376
     16 C         138.1177  143.2549  162.9664 C.ar    1  UNL1        0.1387
     17 C         137.6653  142.0000  162.2805 C.ar    1  UNL1        0.0376
     18 C         137.6933  140.6921  163.0146 C.ar    1  UNL1        0.0134
     19 N         138.2300  138.0238  165.9028 N.1     1  UNL1       -0.1908
     20 C         138.2019  139.3315  165.1687 C.1     1  UNL1        0.1004
     21 C         145.1140  140.0867  164.1912 C.3     1  UNL1        0.0913
     22 C         144.6091  138.9823  165.0718 C.3     1  UNL1        0.1087
     23 N         143.1356  138.8193  165.3001 N.3     1  UNL1       -0.1780
     24 H         142.9678  137.8230  165.4406 H       1  UNL1        0.1488
     25 S         142.4691  139.5353  166.4372 S.O2    1  UNL1        0.0603
     26 O         141.5593  140.2290  165.4671 O.2     1  UNL1       -0.1530
     27 O         143.3789  138.8416  167.4072 O.2     1  UNL1       -0.1530
     28 C         141.8026  140.2513  167.5744 C.ar    1  UNL1        0.1226
     29 C         140.3715  139.9546  167.9117 C.ar    1  UNL1        0.0199
     30 C         139.7050  140.6706  169.0488 C.ar    1  UNL1        0.0021
     31 C         140.4696  141.6833  169.8487 C.ar    1  UNL1        0.0104
     32 C         141.9008  141.9799  169.5113 C.ar    1  UNL1        0.0698
     33 C         142.5673  141.2640  168.3742 C.ar    1  UNL1        0.0302
     34 C         142.6655  142.9927  170.3112 C.1     1  UNL1        0.1005
     35 N         143.4301  144.0053  171.1111 N.1     1  UNL1       -0.1908
@<TRIPOS>BOND
     1    19    20    3
     2    20    13    1
     3    13    14   ar
     4    14    15   ar
     5    15    16   ar
     6    16    12    1
     7    12    11    1
     8    11    10    1
     9    10     1    1
    10     1     2    1
    11     2     3    1
    12     3     4    1
    13     4     5    1
    14     5    21    1
    15    21    22    1
    16    22    23    1
    17    23    25    1
    18    25    26    2
    19    25    27    2
    20    25    28    1
    21    28    29   ar
    22    29    30   ar
    23    30    31   ar
    24    31    32   ar
    25    32    34    1
    26    34    35    3
    27    32    33   ar
    28     5     6    1
    29     6     7    1
    30     7     8    1
    31     7     9    1
    32    16    17   ar
    33    17    18   ar
    34    18    13   ar
    35     8     1    1
    36     9     3    1
    37    33    28   ar
    38    23    24    1
@<TRIPOS>MOLECULE
*****
 35 38 0 0 0
SMALL
GASTEIGER

@<TRIPOS>ATOM
      1 N         139.1065  139.2419  162.8927 N.3     1  UNL1       -0.2653
      2 C         138.1334  140.3817  162.9536 C.3     1  UNL1        0.1036
      3 C         138.3014  141.5608  162.0419 C.3     1  UNL1        0.1470
      4 C         138.4695  142.7401  161.1301 C.3     1  UNL1        0.1035
      5 N         139.6107  142.7794  160.1574 N.3     1  UNL1       -0.2673
      6 C         140.5838  141.6394  160.0965 C.3     1  UNL1        0.1035
      7 C         140.4158  140.4603  161.0082 C.3     1  UNL1        0.1470
      8 C         140.2477  139.2812  161.9200 C.3     1  UNL1        0.1036
      9 O         139.4426  141.6001  161.0692 O.3     1  UNL1       -0.3530
     10 C         138.9384  138.0626  163.8044 C.3     1  UNL1        0.1202
     11 C         139.4041  138.1429  165.2280 C.3     1  UNL1        0.2226
     12 O         140.6418  138.9185  165.5697 O.3     1  UNL1       -0.4740
     13 C         140.4039  142.3960  168.4158 C.ar    1  UNL1        0.0686
     14 C         140.8894  142.6073  167.0123 C.ar    1  UNL1        0.0134
     15 C         140.9687  141.4482  166.0636 C.ar    1  UNL1        0.0376
     16 C         140.5625  140.0777  166.5184 C.ar    1  UNL1        0.1387
     17 C         140.0770  139.8663  167.9218 C.ar    1  UNL1        0.0376
     18 C         139.9977  141.0255  168.8705 C.ar    1  UNL1        0.0134
     19 N         140.2453  144.7143  170.3132 N.1     1  UNL1       -0.1908
     20 C         140.3246  143.5552  169.3645 C.1     1  UNL1        0.1004
     21 C         139.7788  143.9585  159.2457 C.3     1  UNL1        0.0913
     22 C         140.8213  144.9949  159.5443 C.3     1  UNL1        0.1087
     23 N         140.9733  145.5257  160.9390 N.3     1  UNL1       -0.1780
     24 H         140.0363  145.5752  161.3389 H       1  UNL1        0.1488
     25 S         141.8292  144.7948  161.9304 S.O2    1  UNL1        0.0603
     26 O         140.9093  145.2183  163.0369 O.2     1  UNL1       -0.1530
     27 O         142.7492  144.3712  160.8240 O.2     1  UNL1       -0.1530
     28 C         142.6853  144.0638  162.9219 C.ar    1  UNL1        0.1226
     29 C         143.4205  144.8263  163.9840 C.ar    1  UNL1        0.0199
     30 C         144.2765  144.0954  164.9754 C.ar    1  UNL1        0.0021
     31 C         144.3973  142.6020  164.9048 C.ar    1  UNL1        0.0104
     32 C         143.6621  141.8394  163.8427 C.ar    1  UNL1        0.0698
     33 C         142.8061  142.5703  162.8512 C.ar    1  UNL1        0.0302
     34 C         143.7830  140.3459  163.7720 C.1     1  UNL1        0.1005
     35 N         143.9038  138.8525  163.7015 N.1     1  UNL1       -0.1908
@<TRIPOS>BOND
     1    19    20    3
     2    20    13    1
     3    13    14   ar
     4    14    15   ar
     5    15    16   ar
     6    16    12    1
     7    12    11    1
     8    11    10    1
     9    10     1    1
    10     1     2    1
    11     2     3    1
    12     3     4    1
    13     4     5    1
    14     5    21    1
    15    21    22    1
    16    22    23    1
    17    23    25    1
    18    25    26    2
    19    25    27    2
    20    25    28    1
    21    28    29   ar
    22    29    30   ar
    23    30    31   ar
    24    31    32   ar
    25    32    34    1
    26    34    35    3
    27    32    33   ar
    28     5     6    1
    29     6     7    1
    30     7     8    1
    31     7     9    1
    32    16    17   ar
    33    17    18   ar
    34    18    13   ar
    35     8     1    1
    36     9     3    1
    37    33    28   ar
    38    23    24    1
@<TRIPOS>MOLECULE
*****
 35 38 0 0 0
SMALL
GASTEIGER

@<TRIPOS>ATOM
      1 N         139.3066  137.6400  164.4288 N.3     1  UNL1       -0.2653
      2 C         138.7420  137.8960  163.0629 C.3     1  UNL1        0.1036
      3 C         139.6632  138.1201  161.9006 C.3     1  UNL1        0.1470
      4 C         140.5844  138.3442  160.7381 C.3     1  UNL1        0.1035
      5 N         142.0702  138.3124  160.9417 N.3     1  UNL1       -0.2673
      6 C         142.6348  138.0564  162.3076 C.3     1  UNL1        0.1035
      7 C         141.7135  137.8323  163.4700 C.3     1  UNL1        0.1470
      8 C         140.7923  137.6082  164.6323 C.3     1  UNL1        0.1036
      9 O         141.1490  138.0882  162.1041 O.3     1  UNL1       -0.3530
     10 C         138.3853  137.4159  165.5913 C.3     1  UNL1        0.1202
     11 C         138.0100  138.5624  166.4826 C.3     1  UNL1        0.2226
     12 O         138.4776  139.9500  166.1570 O.3     1  UNL1       -0.4740
     13 C         142.0313  141.6880  168.3020 C.ar    1  UNL1        0.0686
     14 C         141.6987  142.1420  166.9115 C.ar    1  UNL1        0.0134
     15 C         140.5142  141.5627  166.1965 C.ar    1  UNL1        0.0376
     16 C         139.6622  140.5293  166.8720 C.ar    1  UNL1        0.1387
     17 C         139.9947  140.0753  168.2624 C.ar    1  UNL1        0.0376
     18 C         141.1792  140.6546  168.9774 C.ar    1  UNL1        0.0134
     19 N         144.4003  142.8466  169.7319 N.1     1  UNL1       -0.1908
     20 C         143.2158  142.2673  169.0169 C.1     1  UNL1        0.1004
     21 C         142.9914  138.5365  159.7793 C.3     1  UNL1        0.0913
     22 C         143.5134  139.9128  159.4905 C.3     1  UNL1        0.1087
     23 N         144.4123  140.5965  160.4776 N.3     1  UNL1       -0.1780
     24 H         145.2167  140.9413  159.9536 H       1  UNL1        0.1488
     25 S         143.8973  141.7486  161.2882 S.O2    1  UNL1        0.0603
     26 O         144.4167  141.1016  162.5378 O.2     1  UNL1       -0.1530
     27 O         143.3779  142.3957  160.0387 O.2     1  UNL1       -0.1530
     28 C         143.3823  142.9009  162.0989 C.ar    1  UNL1        0.1226
     29 C         144.0648  143.2816  163.3792 C.ar    1  UNL1        0.0199
     30 C         143.5498  144.4337  164.1899 C.ar    1  UNL1        0.0021
     31 C         142.3523  145.2052  163.7203 C.ar    1  UNL1        0.0104
     32 C         141.6697  144.8245  162.4400 C.ar    1  UNL1        0.0698
     33 C         142.1847  143.6723  161.6293 C.ar    1  UNL1        0.0302
     34 C         140.4720  145.5960  161.9703 C.1     1  UNL1        0.1005
     35 N         139.2745  146.3676  161.5007 N.1     1  UNL1       -0.1908
@<TRIPOS>BOND
     1    19    20    3
     2    20    13    1
     3    13    14   ar
     4    14    15   ar
     5    15    16   ar
     6    16    12    1
     7    12    11    1
     8    11    10    1
     9    10     1    1
    10     1     2    1
    11     2     3    1
    12     3     4    1
    13     4     5    1
    14     5    21    1
    15    21    22    1
    16    22    23    1
    17    23    25    1
    18    25    26    2
    19    25    27    2
    20    25    28    1
    21    28    29   ar
    22    29    30   ar
    23    30    31   ar
    24    31    32   ar
    25    32    34    1
    26    34    35    3
    27    32    33   ar
    28     5     6    1
    29     6     7    1
    30     7     8    1
    31     7     9    1
    32    16    17   ar
    33    17    18   ar
    34    18    13   ar
    35     8     1    1
    36     9     3    1
    37    33    28   ar
    38    23    24    1
@<TRIPOS>MOLECULE
*****
 35 38 0 0 0
SMALL
GASTEIGER

@<TRIPOS>ATOM
      1 N         142.4248  143.8635  163.0788 N.3     1  UNL1       -0.2653
      2 C         142.9159  143.3850  161.7447 C.3     1  UNL1        0.1036
      3 C         141.9447  142.8430  160.7383 C.3     1  UNL1        0.1470
      4 C         140.9735  142.3009  159.7318 C.3     1  UNL1        0.1035
      5 N         139.5111  142.2373  160.0595 N.3     1  UNL1       -0.2673
      6 C         139.0199  142.7159  161.3936 C.3     1  UNL1        0.1035
      7 C         139.9912  143.2579  162.4000 C.3     1  UNL1        0.1470
      8 C         140.9624  143.8000  163.4064 C.3     1  UNL1        0.1036
      9 O         140.4823  142.7794  161.0660 O.3     1  UNL1       -0.3530
     10 C         143.3960  144.4056  164.0852 C.3     1  UNL1        0.1202
     11 C         143.9887  143.4966  165.1207 C.3     1  UNL1        0.2226
     12 O         143.5560  142.0623  165.1957 O.3     1  UNL1       -0.4740
     13 C         140.4909  140.7927  168.2360 C.ar    1  UNL1        0.0686
     14 C         141.4469  139.7854  167.6690 C.ar    1  UNL1        0.0134
     15 C         142.4686  140.2086  166.6555 C.ar    1  UNL1        0.0376
     16 C         142.5343  141.6391  166.2091 C.ar    1  UNL1        0.1387
     17 C         141.5784  142.6464  166.7761 C.ar    1  UNL1        0.0376
     18 C         140.5567  142.2232  167.7895 C.ar    1  UNL1        0.0134
     19 N         138.4476  139.9463  170.2628 N.1     1  UNL1       -0.1908
     20 C         139.4693  140.3695  169.2494 C.1     1  UNL1        0.1004
     21 C         138.5399  141.6952  159.0531 C.3     1  UNL1        0.0913
     22 C         137.8108  140.4137  159.3291 C.3     1  UNL1        0.1087
     23 N         138.5769  139.1335  159.4845 N.3     1  UNL1       -0.1780
     24 H         139.3950  139.2046  158.8795 H       1  UNL1        0.1488
     25 S         139.0733  138.7160  160.8369 S.O2    1  UNL1        0.0603
     26 O         137.6596  138.6396  161.3323 O.2     1  UNL1       -0.1530
     27 O         140.4871  138.7924  160.3415 O.2     1  UNL1       -0.1530
     28 C         139.5699  138.2985  162.1894 C.ar    1  UNL1        0.1226
     29 C         140.9571  137.7487  162.3422 C.ar    1  UNL1        0.0199
     30 C         141.4537  137.3313  163.6947 C.ar    1  UNL1        0.0021
     31 C         140.5630  137.4635  164.8943 C.ar    1  UNL1        0.0104
     32 C         139.1757  138.0132  164.7415 C.ar    1  UNL1        0.0698
     33 C         138.6792  138.4307  163.3891 C.ar    1  UNL1        0.0302
     34 C         138.2850  138.1455  165.9412 C.1     1  UNL1        0.1005
     35 N         137.3943  138.2777  167.1408 N.1     1  UNL1       -0.1908
@<TRIPOS>BOND
     1    19    20    3
     2    20    13    1
     3    13    14   ar
     4    14    15   ar
     5    15    16   ar
     6    16    12    1
     7    12    11    1
     8    11    10    1
     9    10     1    1
    10     1     2    1
    11     2     3    1
    12     3     4    1
    13     4     5    1
    14     5    21    1
    15    21    22    1
    16    22    23    1
    17    23    25    1
    18    25    26    2
    19    25    27    2
    20    25    28    1
    21    28    29   ar
    22    29    30   ar
    23    30    31   ar
    24    31    32   ar
    25    32    34    1
    26    34    35    3
    27    32    33   ar
    28     5     6    1
    29     6     7    1
    30     7     8    1
    31     7     9    1
    32    16    17   ar
    33    17    18   ar
    34    18    13   ar
    35     8     1    1
    36     9     3    1
    37    33    28   ar
    38    23    24    1
@<TRIPOS>MOLECULE
*****
 35 38 0 0 0
SMALL
GASTEIGER

@<TRIPOS>ATOM
      1 N         138.3406  140.3131  165.1111 N.3     1  UNL1       -0.2653
      2 C         137.7220  140.5631  163.7677 C.3     1  UNL1        0.1036
      3 C         138.0219  141.8335  163.0288 C.3     1  UNL1        0.1470
      4 C         138.3217  143.1040  162.2898 C.3     1  UNL1        0.1035
      5 N         139.2401  144.1244  162.8943 N.3     1  UNL1       -0.2673
      6 C         139.8586  143.8743  164.2378 C.3     1  UNL1        0.1035
      7 C         139.5588  142.6039  164.9767 C.3     1  UNL1        0.1470
      8 C         139.2589  141.3334  165.7156 C.3     1  UNL1        0.1036
      9 O         138.9403  142.8539  163.6333 O.3     1  UNL1       -0.3530
     10 C         138.0407  139.0426  165.8501 C.3     1  UNL1        0.1202
     11 C         138.8104  137.7936  165.5377 C.3     1  UNL1        0.2226
     12 O         138.7901  137.2279  164.1485 O.3     1  UNL1       -0.4740
     13 C         141.9279  138.4643  161.1694 C.ar    1  UNL1        0.0686
     14 C         140.4761  138.5192  160.7960 C.ar    1  UNL1        0.0134
     15 C         139.4302  138.1071  161.7891 C.ar    1  UNL1        0.0376
     16 C         139.8360  137.6400  163.1555 C.ar    1  UNL1        0.1387
     17 C         141.2877  137.5850  163.5289 C.ar    1  UNL1        0.0376
     18 C         142.3337  137.9972  162.5358 C.ar    1  UNL1        0.0134
     19 N         144.0197  139.2885  159.1833 N.1     1  UNL1       -0.1908
     20 C         142.9738  138.8764  160.1763 C.1     1  UNL1        0.1004
     21 C         139.5399  145.3948  162.1554 C.3     1  UNL1        0.0913
     22 C         140.7927  145.5094  161.3382 C.3     1  UNL1        0.1087
     23 N         141.4270  144.2787  160.7614 N.3     1  UNL1       -0.1780
     24 H         141.9624  144.5778  159.9463 H       1  UNL1        0.1488
     25 S         142.3480  143.4452  161.6023 S.O2    1  UNL1        0.0603
     26 O         143.1008  144.6797  162.0013 O.2     1  UNL1       -0.1530
     27 O         141.5951  142.2108  161.2033 O.2     1  UNL1       -0.1530
     28 C         143.2689  142.6117  162.4432 C.ar    1  UNL1        0.1226
     29 C         144.7438  142.6156  162.1698 C.ar    1  UNL1        0.0199
     30 C         145.6647  141.7821  163.0106 C.ar    1  UNL1        0.0021
     31 C         145.1108  140.9447  164.1250 C.ar    1  UNL1        0.0104
     32 C         143.6359  140.9407  164.3985 C.ar    1  UNL1        0.0698
     33 C         142.7150  141.7742  163.5576 C.ar    1  UNL1        0.0302
     34 C         143.0820  140.1032  165.5129 C.1     1  UNL1        0.1005
     35 N         142.5281  139.2658  166.6273 N.1     1  UNL1       -0.1908
@<TRIPOS>BOND
     1    19    20    3
     2    20    13    1
     3    13    14   ar
     4    14    15   ar
     5    15    16   ar
     6    16    12    1
     7    12    11    1
     8    11    10    1
     9    10     1    1
    10     1     2    1
    11     2     3    1
    12     3     4    1
    13     4     5    1
    14     5    21    1
    15    21    22    1
    16    22    23    1
    17    23    25    1
    18    25    26    2
    19    25    27    2
    20    25    28    1
    21    28    29   ar
    22    29    30   ar
    23    30    31   ar
    24    31    32   ar
    25    32    34    1
    26    34    35    3
    27    32    33   ar
    28     5     6    1
    29     6     7    1
    30     7     8    1
    31     7     9    1
    32    16    17   ar
    33    17    18   ar
    34    18    13   ar
    35     8     1    1
    36     9     3    1
    37    33    28   ar
    38    23    24    1
@<TRIPOS>MOLECULE
*****
 35 38 0 0 0
SMALL
GASTEIGER

@<TRIPOS>ATOM
      1 N         140.7763  144.0694  160.2124 N.3     1  UNL1       -0.2653
      2 C         139.7631  143.0707  159.7371 C.3     1  UNL1        0.1036
      3 C         140.1654  141.6434  159.5118 C.3     1  UNL1        0.1470
      4 C         140.5677  140.2159  159.2864 C.3     1  UNL1        0.1035
      5 N         141.9832  139.7873  159.5364 N.3     1  UNL1       -0.2673
      6 C         142.9965  140.7860  160.0117 C.3     1  UNL1        0.1035
      7 C         142.5942  142.2134  160.2371 C.3     1  UNL1        0.1470
      8 C         142.1919  143.6407  160.4624 C.3     1  UNL1        0.1036
      9 O         141.5809  141.2147  159.7618 O.3     1  UNL1       -0.3530
     10 C         140.3740  145.4968  160.4378 C.3     1  UNL1        0.1202
     11 C         139.8869  145.9346  161.7872 C.3     1  UNL1        0.2226
     12 O         138.6059  145.3816  162.3379 O.3     1  UNL1       -0.4740
     13 C         138.6454  141.5723  164.7332 C.ar    1  UNL1        0.0686
     14 C         137.6515  141.7505  163.6239 C.ar    1  UNL1        0.0134
     15 C         137.6384  143.0202  162.8255 C.ar    1  UNL1        0.0376
     16 C         138.6191  144.1118  163.1363 C.ar    1  UNL1        0.1387
     17 C         139.6129  143.9337  164.2456 C.ar    1  UNL1        0.0376
     18 C         139.6261  142.6639  165.0440 C.ar    1  UNL1        0.0134
     19 N         138.6718  139.0328  166.3300 N.1     1  UNL1       -0.1908
     20 C         138.6586  140.3025  165.5316 C.1     1  UNL1        0.1004
     21 C         142.3855  138.3599  159.3111 C.3     1  UNL1        0.0913
     22 C         142.9608  137.5558  160.4391 C.3     1  UNL1        0.1087
     23 N         142.1522  137.3193  161.6802 N.3     1  UNL1       -0.1780
     24 H         142.3736  136.3765  162.0006 H       1  UNL1        0.1488
     25 S         142.3115  138.2273  162.8634 S.O2    1  UNL1        0.0603
     26 O         140.8552  138.0650  163.1839 O.2     1  UNL1       -0.1530
     27 O         143.7678  138.3896  162.5429 O.2     1  UNL1       -0.1530
     28 C         142.4708  139.1353  164.0467 C.ar    1  UNL1        0.1226
     29 C         142.1542  138.6342  165.4246 C.ar    1  UNL1        0.0199
     30 C         142.3134  139.5422  166.6079 C.ar    1  UNL1        0.0021
     31 C         142.7893  140.9513  166.4132 C.ar    1  UNL1        0.0104
     32 C         143.1059  141.4524  165.0353 C.ar    1  UNL1        0.0698
     33 C         142.9466  140.5444  163.8521 C.ar    1  UNL1        0.0302
     34 C         143.5818  142.8616  164.8407 C.1     1  UNL1        0.1005
     35 N         144.0577  144.2707  164.6460 N.1     1  UNL1       -0.1908
@<TRIPOS>BOND
     1    19    20    3
     2    20    13    1
     3    13    14   ar
     4    14    15   ar
     5    15    16   ar
     6    16    12    1
     7    12    11    1
     8    11    10    1
     9    10     1    1
    10     1     2    1
    11     2     3    1
    12     3     4    1
    13     4     5    1
    14     5    21    1
    15    21    22    1
    16    22    23    1
    17    23    25    1
    18    25    26    2
    19    25    27    2
    20    25    28    1
    21    28    29   ar
    22    29    30   ar
    23    30    31   ar
    24    31    32   ar
    25    32    34    1
    26    34    35    3
    27    32    33   ar
    28     5     6    1
    29     6     7    1
    30     7     8    1
    31     7     9    1
    32    16    17   ar
    33    17    18   ar
    34    18    13   ar
    35     8     1    1
    36     9     3    1
    37    33    28   ar
    38    23    24    1
@<TRIPOS>MOLECULE
*****
 35 38 0 0 0
SMALL
GASTEIGER

@<TRIPOS>ATOM
      1 N         139.0286  139.0289  162.0414 N.3     1  UNL1       -0.2653
      2 C         137.9301  140.0463  161.9510 C.3     1  UNL1        0.1036
      3 C         138.1062  141.2662  161.0962 C.3     1  UNL1        0.1470
      4 C         138.2823  142.4862  160.2414 C.3     1  UNL1        0.1035
      5 N         139.5569  142.6888  159.4770 N.3     1  UNL1       -0.2673
      6 C         140.6554  141.6713  159.5674 C.3     1  UNL1        0.1035
      7 C         140.4793  140.4514  160.4222 C.3     1  UNL1        0.1470
      8 C         140.3032  139.2315  161.2770 C.3     1  UNL1        0.1036
      9 O         139.3808  141.4687  160.3318 O.3     1  UNL1       -0.3530
     10 C         138.8525  137.8089  162.8962 C.3     1  UNL1        0.1202
     11 C         139.3528  137.8053  164.3103 C.3     1  UNL1        0.2226
     12 O         140.4278  138.7645  164.7279 O.3     1  UNL1       -0.4740
     13 C         140.5961  140.2458  168.9738 C.ar    1  UNL1        0.0686
     14 C         139.2709  140.0628  168.2952 C.ar    1  UNL1        0.0134
     15 C         139.2148  139.5690  166.8800 C.ar    1  UNL1        0.0376
     16 C         140.4839  139.2583  166.1432 C.ar    1  UNL1        0.1387
     17 C         141.8091  139.4413  166.8217 C.ar    1  UNL1        0.0376
     18 C         141.8652  139.9351  168.2370 C.ar    1  UNL1        0.0134
     19 N         140.7083  141.2333  171.8043 N.1     1  UNL1       -0.1908
     20 C         140.6522  140.7396  170.3891 C.1     1  UNL1        0.1004
     21 C         139.7330  143.9087  158.6222 C.3     1  UNL1        0.0913
     22 C         140.5067  145.0838  159.1425 C.3     1  UNL1        0.1087
     23 N         139.9869  145.8655  160.3123 N.3     1  UNL1       -0.1780
     24 H         139.0129  146.0889  160.1077 H       1  UNL1        0.1488
     25 S         140.0140  145.2656  161.6868 S.O2    1  UNL1        0.0603
     26 O         138.5956  145.7019  161.9052 O.2     1  UNL1       -0.1530
     27 O         141.4325  144.8294  161.4684 O.2     1  UNL1       -0.1530
     28 C         140.0413  144.6657  163.0614 C.ar    1  UNL1        0.1226
     29 C         138.8117  144.7016  163.9199 C.ar    1  UNL1        0.0199
     30 C         138.8389  144.1018  165.2944 C.ar    1  UNL1        0.0021
     31 C         140.0956  143.4659  165.8105 C.ar    1  UNL1        0.0104
     32 C         141.3251  143.4300  164.9520 C.ar    1  UNL1        0.0698
     33 C         141.2980  144.0299  163.5775 C.ar    1  UNL1        0.0302
     34 C         142.5819  142.7941  165.4682 C.1     1  UNL1        0.1005
     35 N         143.8386  142.1583  165.9842 N.1     1  UNL1       -0.1908
@<TRIPOS>BOND
     1    19    20    3
     2    20    13    1
     3    13    14   ar
     4    14    15   ar
     5    15    16   ar
     6    16    12    1
     7    12    11    1
     8    11    10    1
     9    10     1    1
    10     1     2    1
    11     2     3    1
    12     3     4    1
    13     4     5    1
    14     5    21    1
    15    21    22    1
    16    22    23    1
    17    23    25    1
    18    25    26    2
    19    25    27    2
    20    25    28    1
    21    28    29   ar
    22    29    30   ar
    23    30    31   ar
    24    31    32   ar
    25    32    34    1
    26    34    35    3
    27    32    33   ar
    28     5     6    1
    29     6     7    1
    30     7     8    1
    31     7     9    1
    32    16    17   ar
    33    17    18   ar
    34    18    13   ar
    35     8     1    1
    36     9     3    1
    37    33    28   ar
    38    23    24    1
