@<TRIPOS>MOLECULE
*****
 35 39 0 0 0
SMALL
GASTEIGER

@<TRIPOS>ATOM
      1 N         142.2667  143.5911  161.6349 N.3     1  UNL1       -0.2712
      2 C         143.6774  143.3168  161.2053 C.3     1  UNL1        0.0738
      3 C         144.3491  142.5326  162.2934 C.3     1  UNL1        0.0372
      4 C         145.6361  141.8784  162.7003 C.3     1  UNL1        0.0245
      5 C         145.4360  141.2637  164.0539 C.3     1  UNL1        0.0909
      6 N         144.0251  141.5381  164.4835 N.pl3   1  UNL1       -0.3077
      7 C         143.3535  142.3223  163.3954 C.3     1  UNL1        0.0901
      8 C         142.0665  142.9765  162.9885 C.3     1  UNL1        0.0921
      9 C         143.3965  141.1044  165.7745 C.ar    1  UNL1        0.0480
     10 C         143.1665  139.6469  166.0443 C.ar    1  UNL1        0.0176
     11 C         142.5379  139.2132  167.3353 C.ar    1  UNL1        0.0385
     12 C         142.1391  140.2370  168.3565 C.ar    1  UNL1        0.1469
     13 C         142.3691  141.6945  168.0867 C.ar    1  UNL1        0.0385
     14 C         142.9977  142.1282  166.7957 C.ar    1  UNL1        0.0176
     15 O         141.5105  139.8033  169.6475 O.3     1  UNL1       -0.4045
     16 C         140.1331  140.2761  170.0071 C.3     1  UNL1        0.5753
     17 F         138.7557  140.7490  170.3667 F       1  UNL1       -0.1328
     18 F         139.5983  139.6843  168.7368 F       1  UNL1       -0.1328
     19 F         140.6680  140.8679  171.2774 F       1  UNL1       -0.1328
     20 C         141.2369  144.3473  160.8490 C.3     1  UNL1        0.0731
     21 C         140.5608  145.5423  161.4531 C.3     1  UNL1        0.0294
     22 C         139.1284  145.4530  161.8893 C.3     1  UNL1        0.0666
     23 S         138.7787  144.7757  163.1812 S.3     1  UNL1       -0.0756
     24 C         138.1157  141.0077  163.8361 C.ar    1  UNL1        0.2029
     25 N         137.3796  141.2115  162.5451 N.ar    1  UNL1       -0.1250
     26 N         137.5383  142.6478  162.1426 N.ar    1  UNL1       -0.1220
     27 C         138.3726  143.3317  163.1849 C.ar    1  UNL1        0.1933
     28 N         138.7294  142.3182  164.2315 N.ar    1  UNL1       -0.2860
     29 C         139.5550  142.5706  165.4582 C.3     1  UNL1        0.1341
     30 C         139.2594  138.1801  162.6761 C.3     1  UNL1        0.0556
     31 C         138.7455  138.4201  164.0647 C.ar    1  UNL1        0.1001
     32 N         138.6670  137.4025  165.1640 N.ar    1  UNL1       -0.2085
     33 C         138.0928  138.0733  166.3766 C.ar    1  UNL1        0.2849
     34 O         137.8164  139.5055  166.0267 O.2     1  UNL1       -0.4283
     35 C         138.2198  139.7198  164.5979 C.ar    1  UNL1        0.1964
@<TRIPOS>BOND
     1    30    31    1
     2    31    32   ar
     3    32    33   ar
     4    33    34   ar
     5    34    35   ar
     6    35    24    1
     7    24    25   ar
     8    25    26   ar
     9    26    27   ar
    10    27    23    1
    11    23    22    1
    12    22    21    1
    13    21    20    1
    14    20     1    1
    15     1     2    1
    16     2     3    1
    17     3     4    1
    18     4     5    1
    19     5     6    1
    20     6     9    1
    21     9    10   ar
    22    10    11   ar
    23    11    12   ar
    24    12    15    1
    25    15    16    1
    26    16    17    1
    27    16    18    1
    28    16    19    1
    29    12    13   ar
    30    13    14   ar
    31     6     7    1
    32     7     8    1
    33    27    28   ar
    34    28    29    1
    35    35    31   ar
    36    28    24   ar
    37     8     1    1
    38     7     3    1
    39    14     9   ar
@<TRIPOS>MOLECULE
*****
 35 39 0 0 0
SMALL
GASTEIGER

@<TRIPOS>ATOM
      1 N         142.4186  143.8717  161.8447 N.3     1  UNL1       -0.2712
      2 C         143.7981  143.4758  161.4088 C.3     1  UNL1        0.0738
      3 C         144.3770  142.5779  162.4617 C.3     1  UNL1        0.0372
      4 C         145.5875  141.7783  162.8430 C.3     1  UNL1        0.0245
      5 C         145.3139  141.1251  164.1654 C.3     1  UNL1        0.0909
      6 N         143.9342  141.5211  164.6013 N.pl3   1  UNL1       -0.3077
      7 C         143.3553  142.4190  163.5484 C.3     1  UNL1        0.0901
      8 C         142.1449  143.2186  163.1670 C.3     1  UNL1        0.0921
      9 C         143.2532  141.0942  165.8678 C.ar    1  UNL1        0.0480
     10 C         142.9931  139.6397  166.1259 C.ar    1  UNL1        0.0176
     11 C         142.3121  139.2127  167.3923 C.ar    1  UNL1        0.0385
     12 C         141.8911  140.2403  168.4007 C.ar    1  UNL1        0.1469
     13 C         142.1512  141.6950  168.1426 C.ar    1  UNL1        0.0385
     14 C         142.8323  142.1219  166.8761 C.ar    1  UNL1        0.0176
     15 O         141.2101  139.8134  169.6671 O.3     1  UNL1       -0.4045
     16 C         139.8345  140.3193  169.9863 C.3     1  UNL1        0.5753
     17 F         138.4589  140.8251  170.3053 F       1  UNL1       -0.1328
     18 F         140.3193  140.7936  171.3241 F       1  UNL1       -0.1328
     19 F         139.3497  139.8449  168.6483 F       1  UNL1       -0.1328
     20 C         141.4778  144.7642  161.0907 C.3     1  UNL1        0.0731
     21 C         141.3213  144.6064  159.6072 C.3     1  UNL1        0.0294
     22 C         139.9832  144.2554  159.0273 C.3     1  UNL1        0.0666
     23 S         139.4772  142.8456  159.1081 S.3     1  UNL1       -0.0756
     24 C         138.6060  140.9909  162.4046 C.ar    1  UNL1        0.2029
     25 N         137.5306  142.0360  162.3670 N.ar    1  UNL1       -0.1250
     26 N         137.7260  142.8579  161.1275 N.ar    1  UNL1       -0.1220
     27 C         138.9223  142.3209  160.3991 C.ar    1  UNL1        0.1933
     28 N         139.4662  141.1671  161.1883 N.ar    1  UNL1       -0.2860
     29 C         140.6605  140.3354  160.8251 C.3     1  UNL1        0.1341
     30 C         139.4378  141.5555  165.5093 C.3     1  UNL1        0.0556
     31 C         139.1715  140.2117  164.8982 C.ar    1  UNL1        0.1001
     32 N         139.2407  138.8915  165.6069 N.ar    1  UNL1       -0.2085
     33 C         138.9012  137.8161  164.6178 C.ar    1  UNL1        0.2849
     34 O         138.6221  138.4717  163.2978 O.2     1  UNL1       -0.4283
     35 C         138.7892  139.9522  163.4711 C.ar    1  UNL1        0.1964
@<TRIPOS>BOND
     1    30    31    1
     2    31    32   ar
     3    32    33   ar
     4    33    34   ar
     5    34    35   ar
     6    35    24    1
     7    24    25   ar
     8    25    26   ar
     9    26    27   ar
    10    27    23    1
    11    23    22    1
    12    22    21    1
    13    21    20    1
    14    20     1    1
    15     1     2    1
    16     2     3    1
    17     3     4    1
    18     4     5    1
    19     5     6    1
    20     6     9    1
    21     9    10   ar
    22    10    11   ar
    23    11    12   ar
    24    12    15    1
    25    15    16    1
    26    16    17    1
    27    16    18    1
    28    16    19    1
    29    12    13   ar
    30    13    14   ar
    31     6     7    1
    32     7     8    1
    33    27    28   ar
    34    28    29    1
    35    35    31   ar
    36    28    24   ar
    37     8     1    1
    38     7     3    1
    39    14     9   ar
@<TRIPOS>MOLECULE
*****
 35 39 0 0 0
SMALL
GASTEIGER

@<TRIPOS>ATOM
      1 N         139.3070  138.7654  162.1070 N.3     1  UNL1       -0.2712
      2 C         140.5546  138.1212  161.5793 C.3     1  UNL1        0.0738
      3 C         141.6820  138.4660  162.5066 C.3     1  UNL1        0.0372
      4 C         143.1500  138.2809  162.7536 C.3     1  UNL1        0.0245
      5 C         143.5064  139.0238  164.0071 C.3     1  UNL1        0.0909
      6 N         142.2587  139.6680  164.5347 N.pl3   1  UNL1       -0.3077
      7 C         141.1313  139.3232  163.6074 C.3     1  UNL1        0.0901
      8 C         139.6634  139.5083  163.3604 C.3     1  UNL1        0.0921
      9 C         142.1565  140.5093  165.7724 C.ar    1  UNL1        0.0480
     10 C         140.9820  140.3512  166.6918 C.ar    1  UNL1        0.0176
     11 C         140.8798  141.1925  167.9295 C.ar    1  UNL1        0.0385
     12 C         141.9521  142.1918  168.2477 C.ar    1  UNL1        0.1469
     13 C         143.1267  142.3500  167.3283 C.ar    1  UNL1        0.0385
     14 C         143.2289  141.5087  166.0906 C.ar    1  UNL1        0.0176
     15 O         141.8499  143.0331  169.4854 O.3     1  UNL1       -0.4045
     16 C         140.5514  143.1147  170.2317 C.3     1  UNL1        0.5753
     17 F         139.2527  143.1963  170.9780 F       1  UNL1       -0.1328
     18 F         141.0033  142.0090  171.1389 F       1  UNL1       -0.1328
     19 F         140.0995  144.2205  169.3244 F       1  UNL1       -0.1328
     20 C         137.9425  138.6814  161.4896 C.3     1  UNL1        0.0731
     21 C         137.3790  139.8601  160.7526 C.3     1  UNL1        0.0294
     22 C         137.7575  140.1006  159.3212 C.3     1  UNL1        0.0666
     23 S         138.8441  141.0792  158.9870 S.3     1  UNL1       -0.0756
     24 C         140.5177  143.4808  161.5360 C.ar    1  UNL1        0.2029
     25 N         139.1326  144.0523  161.4654 N.ar    1  UNL1       -0.1250
     26 N         138.3371  143.2222  160.5020 N.ar    1  UNL1       -0.1220
     27 C         139.2305  142.1377  159.9771 C.ar    1  UNL1        0.1933
     28 N         140.5782  142.2974  160.6161 N.ar    1  UNL1       -0.2860
     29 C         141.7760  141.4267  160.3773 C.3     1  UNL1        0.1341
     30 C         140.5231  143.7305  164.7898 C.3     1  UNL1        0.0556
     31 C         141.6468  144.1160  163.8741 C.ar    1  UNL1        0.1001
     32 N         142.9704  144.6839  164.2931 N.ar    1  UNL1       -0.2085
     33 C         143.7859  144.9202  163.0566 C.ar    1  UNL1        0.2849
     34 O         142.9663  144.4982  161.8732 O.2     1  UNL1       -0.4283
     35 C         141.6443  144.0012  162.3785 C.ar    1  UNL1        0.1964
@<TRIPOS>BOND
     1    30    31    1
     2    31    32   ar
     3    32    33   ar
     4    33    34   ar
     5    34    35   ar
     6    35    24    1
     7    24    25   ar
     8    25    26   ar
     9    26    27   ar
    10    27    23    1
    11    23    22    1
    12    22    21    1
    13    21    20    1
    14    20     1    1
    15     1     2    1
    16     2     3    1
    17     3     4    1
    18     4     5    1
    19     5     6    1
    20     6     9    1
    21     9    10   ar
    22    10    11   ar
    23    11    12   ar
    24    12    15    1
    25    15    16    1
    26    16    17    1
    27    16    18    1
    28    16    19    1
    29    12    13   ar
    30    13    14   ar
    31     6     7    1
    32     7     8    1
    33    27    28   ar
    34    28    29    1
    35    35    31   ar
    36    28    24   ar
    37     8     1    1
    38     7     3    1
    39    14     9   ar
@<TRIPOS>MOLECULE
*****
 35 39 0 0 0
SMALL
GASTEIGER

@<TRIPOS>ATOM
      1 N         138.7024  141.3728  161.1740 N.3     1  UNL1       -0.2712
      2 C         138.2928  139.9738  160.8202 C.3     1  UNL1        0.0738
      3 C         138.5769  139.0948  162.0020 C.3     1  UNL1        0.0372
      4 C         138.4993  137.6869  162.5137 C.3     1  UNL1        0.0245
      5 C         139.0365  137.6724  163.9142 C.3     1  UNL1        0.0909
      6 N         139.4460  139.0715  164.2680 N.pl3   1  UNL1       -0.3077
      7 C         139.1620  139.9505  163.0862 C.3     1  UNL1        0.0901
      8 C         139.2395  141.3584  162.5745 C.3     1  UNL1        0.0921
      9 C         140.0360  139.5137  165.5742 C.ar    1  UNL1        0.0480
     10 C         141.5124  139.3927  165.8096 C.ar    1  UNL1        0.0176
     11 C         142.1024  139.8350  167.1159 C.ar    1  UNL1        0.0385
     12 C         141.2160  140.3982  168.1868 C.ar    1  UNL1        0.1469
     13 C         139.7395  140.5193  167.9514 C.ar    1  UNL1        0.0385
     14 C         139.1495  140.0770  166.6452 C.ar    1  UNL1        0.0176
     15 O         141.8060  140.8405  169.4930 O.3     1  UNL1       -0.4045
     16 C         143.0441  141.6871  169.5084 C.3     1  UNL1        0.5753
     17 F         144.2823  142.5337  169.5238 F       1  UNL1       -0.1328
     18 F         142.3380  142.7344  168.6995 F       1  UNL1       -0.1328
     19 F         143.7502  140.6396  170.3174 F       1  UNL1       -0.1328
     20 C         138.5939  142.5751  160.2837 C.3     1  UNL1        0.0731
     21 C         139.5143  142.7238  159.1087 C.3     1  UNL1        0.0294
     22 C         139.7014  144.0670  158.4677 C.3     1  UNL1        0.0666
     23 S         140.6955  145.0366  159.0346 S.3     1  UNL1       -0.0756
     24 C         141.9652  144.5250  162.6667 C.ar    1  UNL1        0.2029
     25 N         140.8988  145.5591  162.8753 N.ar    1  UNL1       -0.1250
     26 N         140.2934  145.8766  161.5402 N.ar    1  UNL1       -0.1220
     27 C         140.9856  145.0387  160.5063 C.ar    1  UNL1        0.1933
     28 N         142.0188  144.2034  161.2025 N.ar    1  UNL1       -0.2860
     29 C         142.9433  143.2192  160.5493 C.3     1  UNL1        0.1341
     30 C         140.9079  143.1111  165.4113 C.3     1  UNL1        0.0556
     31 C         142.3406  143.2691  164.9963 C.ar    1  UNL1        0.1001
     32 N         143.5390  142.8048  165.7699 N.ar    1  UNL1       -0.2085
     33 C         144.7656  143.1678  164.9865 C.ar    1  UNL1        0.2849
     34 O         144.3253  143.8564  163.7287 O.2     1  UNL1       -0.4283
     35 C         142.8266  143.9189  163.7347 C.ar    1  UNL1        0.1964
@<TRIPOS>BOND
     1    30    31    1
     2    31    32   ar
     3    32    33   ar
     4    33    34   ar
     5    34    35   ar
     6    35    24    1
     7    24    25   ar
     8    25    26   ar
     9    26    27   ar
    10    27    23    1
    11    23    22    1
    12    22    21    1
    13    21    20    1
    14    20     1    1
    15     1     2    1
    16     2     3    1
    17     3     4    1
    18     4     5    1
    19     5     6    1
    20     6     9    1
    21     9    10   ar
    22    10    11   ar
    23    11    12   ar
    24    12    15    1
    25    15    16    1
    26    16    17    1
    27    16    18    1
    28    16    19    1
    29    12    13   ar
    30    13    14   ar
    31     6     7    1
    32     7     8    1
    33    27    28   ar
    34    28    29    1
    35    35    31   ar
    36    28    24   ar
    37     8     1    1
    38     7     3    1
    39    14     9   ar
@<TRIPOS>MOLECULE
*****
 35 39 0 0 0
SMALL
GASTEIGER

@<TRIPOS>ATOM
      1 N         141.9292  141.6592  161.0806 N.3     1  UNL1       -0.2712
      2 C         143.4015  141.7976  160.8293 C.3     1  UNL1        0.0738
      3 C         144.1054  141.7347  162.1524 C.3     1  UNL1        0.0372
      4 C         145.4504  141.7813  162.8148 C.3     1  UNL1        0.0245
      5 C         145.2445  141.6329  164.2932 C.3     1  UNL1        0.0909
      6 N         143.7721  141.4945  164.5445 N.pl3   1  UNL1       -0.3077
      7 C         143.0682  141.5574  163.2214 C.3     1  UNL1        0.0901
      8 C         141.7232  141.5108  162.5590 C.3     1  UNL1        0.0921
      9 C         143.1185  141.3233  165.8837 C.ar    1  UNL1        0.0480
     10 C         142.2997  140.0990  166.1676 C.ar    1  UNL1        0.0176
     11 C         141.6460  139.9278  167.5068 C.ar    1  UNL1        0.0385
     12 C         141.8113  140.9808  168.5621 C.ar    1  UNL1        0.1469
     13 C         142.6302  142.2052  168.2782 C.ar    1  UNL1        0.0385
     14 C         143.2838  142.3764  166.9390 C.ar    1  UNL1        0.0176
     15 O         141.1577  140.8096  169.9013 O.3     1  UNL1       -0.4045
     16 C         139.7018  140.4586  169.9859 C.3     1  UNL1        0.5753
     17 F         138.2459  140.1076  170.0705 F       1  UNL1       -0.1328
     18 F         140.0327  139.3025  170.8825 F       1  UNL1       -0.1328
     19 F         139.3710  141.6148  169.0893 F       1  UNL1       -0.1328
     20 C         140.8520  141.6677  160.0368 C.3     1  UNL1        0.0731
     21 C         140.9804  140.8010  158.8194 C.3     1  UNL1        0.0294
     22 C         141.0827  139.3117  158.9663 C.3     1  UNL1        0.0666
     23 S         139.9895  138.5490  159.6541 S.3     1  UNL1       -0.0756
     24 C         139.5405  138.1064  163.4840 C.ar    1  UNL1        0.2029
     25 N         140.9179  137.5459  163.2869 N.ar    1  UNL1       -0.1250
     26 N         141.2537  137.6435  161.8282 N.ar    1  UNL1       -0.1220
     27 C         140.0839  138.2643  161.1238 C.ar    1  UNL1        0.1933
     28 N         139.0251  138.5504  162.1471 N.ar    1  UNL1       -0.2860
     29 C         137.6861  139.1715  161.8804 C.3     1  UNL1        0.1341
     30 C         138.7282  140.8671  165.0230 C.3     1  UNL1        0.0556
     31 C         138.4340  139.4745  165.4963 C.ar    1  UNL1        0.1001
     32 N         137.7148  139.1062  166.7600 N.ar    1  UNL1       -0.2085
     33 C         137.6436  137.6097  166.8337 C.ar    1  UNL1        0.2849
     34 O         138.3189  137.0531  165.6155 O.2     1  UNL1       -0.4283
     35 C         138.8074  138.2055  164.7889 C.ar    1  UNL1        0.1964
@<TRIPOS>BOND
     1    30    31    1
     2    31    32   ar
     3    32    33   ar
     4    33    34   ar
     5    34    35   ar
     6    35    24    1
     7    24    25   ar
     8    25    26   ar
     9    26    27   ar
    10    27    23    1
    11    23    22    1
    12    22    21    1
    13    21    20    1
    14    20     1    1
    15     1     2    1
    16     2     3    1
    17     3     4    1
    18     4     5    1
    19     5     6    1
    20     6     9    1
    21     9    10   ar
    22    10    11   ar
    23    11    12   ar
    24    12    15    1
    25    15    16    1
    26    16    17    1
    27    16    18    1
    28    16    19    1
    29    12    13   ar
    30    13    14   ar
    31     6     7    1
    32     7     8    1
    33    27    28   ar
    34    28    29    1
    35    35    31   ar
    36    28    24   ar
    37     8     1    1
    38     7     3    1
    39    14     9   ar
@<TRIPOS>MOLECULE
*****
 35 39 0 0 0
SMALL
GASTEIGER

@<TRIPOS>ATOM
      1 N         142.7431  138.9577  161.8205 N.3     1  UNL1       -0.2712
      2 C         141.6082  138.0647  161.4148 C.3     1  UNL1        0.0738
      3 C         140.5355  138.1759  162.4573 C.3     1  UNL1        0.0372
      4 C         139.1711  137.6927  162.8510 C.3     1  UNL1        0.0245
      5 C         138.7997  138.3557  164.1442 C.3     1  UNL1        0.0909
      6 N         139.9347  139.2488  164.5499 N.pl3   1  UNL1       -0.3077
      7 C         141.0074  139.1376  163.5073 C.3     1  UNL1        0.0901
      8 C         142.3718  139.6208  163.1137 C.3     1  UNL1        0.0921
      9 C         139.9875  140.1030  165.7818 C.ar    1  UNL1        0.0480
     10 C         140.4524  141.5260  165.6883 C.ar    1  UNL1        0.0176
     11 C         140.5053  142.3802  166.9202 C.ar    1  UNL1        0.0385
     12 C         140.0932  141.8113  168.2455 C.ar    1  UNL1        0.1469
     13 C         139.6283  140.3882  168.3391 C.ar    1  UNL1        0.0385
     14 C         139.5755  139.5340  167.1072 C.ar    1  UNL1        0.0176
     15 O         140.1461  142.6655  169.4774 O.3     1  UNL1       -0.4045
     16 C         141.4632  143.1816  169.9763 C.3     1  UNL1        0.5753
     17 F         142.7804  143.6976  170.4752 F       1  UNL1       -0.1328
     18 F         140.8969  144.5693  170.0360 F       1  UNL1       -0.1328
     19 F         142.0295  141.7938  169.9166 F       1  UNL1       -0.1328
     20 C         144.0244  139.1533  161.0655 C.3     1  UNL1        0.0731
     21 C         144.1047  140.1841  159.9788 C.3     1  UNL1        0.0294
     22 C         143.0842  140.1962  158.8795 C.3     1  UNL1        0.0666
     23 S         142.5723  141.5012  158.3456 S.3     1  UNL1       -0.0756
     24 C         140.8522  143.7569  160.9949 C.ar    1  UNL1        0.2029
     25 N         141.9392  144.6656  160.5023 N.ar    1  UNL1       -0.1250
     26 N         142.7159  143.9312  159.4499 N.ar    1  UNL1       -0.1220
     27 C         142.1089  142.5686  159.2921 C.ar    1  UNL1        0.1933
     28 N         140.9570  142.4609  160.2469 N.ar    1  UNL1       -0.2860
     29 C         140.0664  141.2668  160.4229 C.3     1  UNL1        0.1341
     30 C         141.5005  144.7841  164.0238 C.3     1  UNL1        0.0556
     31 C         140.1363  144.5585  163.4423 C.ar    1  UNL1        0.1001
     32 N         138.8306  144.7655  164.1510 N.ar    1  UNL1       -0.2085
     33 C         137.7256  144.4212  163.1968 C.ar    1  UNL1        0.2849
     34 O         138.3484  144.0015  161.8984 O.2     1  UNL1       -0.4283
     35 C         139.8383  144.0864  162.0501 C.ar    1  UNL1        0.1964
@<TRIPOS>BOND
     1    30    31    1
     2    31    32   ar
     3    32    33   ar
     4    33    34   ar
     5    34    35   ar
     6    35    24    1
     7    24    25   ar
     8    25    26   ar
     9    26    27   ar
    10    27    23    1
    11    23    22    1
    12    22    21    1
    13    21    20    1
    14    20     1    1
    15     1     2    1
    16     2     3    1
    17     3     4    1
    18     4     5    1
    19     5     6    1
    20     6     9    1
    21     9    10   ar
    22    10    11   ar
    23    11    12   ar
    24    12    15    1
    25    15    16    1
    26    16    17    1
    27    16    18    1
    28    16    19    1
    29    12    13   ar
    30    13    14   ar
    31     6     7    1
    32     7     8    1
    33    27    28   ar
    34    28    29    1
    35    35    31   ar
    36    28    24   ar
    37     8     1    1
    38     7     3    1
    39    14     9   ar
@<TRIPOS>MOLECULE
*****
 35 39 0 0 0
SMALL
GASTEIGER

@<TRIPOS>ATOM
      1 N         142.7815  142.4351  160.6148 N.3     1  UNL1       -0.2712
      2 C         143.3637  141.1331  160.1503 C.3     1  UNL1        0.0738
      3 C         143.6302  140.2869  161.3598 C.3     1  UNL1        0.0372
      4 C         144.1548  138.9592  161.8202 C.3     1  UNL1        0.0245
      5 C         144.0617  138.9176  163.3168 C.3     1  UNL1        0.0909
      6 N         143.4795  140.2197  163.7812 N.pl3   1  UNL1       -0.3077
      7 C         143.2129  141.0659  162.5718 C.3     1  UNL1        0.0901
      8 C         142.6883  142.3937  162.1113 C.3     1  UNL1        0.0921
      9 C         143.2111  140.6075  165.2052 C.ar    1  UNL1        0.0480
     10 C         143.4483  142.0184  165.6558 C.ar    1  UNL1        0.0176
     11 C         143.1799  142.4061  167.0797 C.ar    1  UNL1        0.0385
     12 C         142.6742  141.3830  168.0531 C.ar    1  UNL1        0.1469
     13 C         142.4369  139.9720  167.6025 C.ar    1  UNL1        0.0385
     14 C         142.7054  139.5843  166.1786 C.ar    1  UNL1        0.0176
     15 O         142.4058  141.7708  169.4770 O.3     1  UNL1       -0.4045
     16 C         141.7183  143.0680  169.7842 C.3     1  UNL1        0.5753
     17 F         141.0308  144.3654  170.0915 F       1  UNL1       -0.1328
     18 F         140.5105  142.6082  169.0229 F       1  UNL1       -0.1328
     19 F         142.9263  143.5278  170.5455 F       1  UNL1       -0.1328
     20 C         142.3656  143.5781  159.7369 C.3     1  UNL1        0.0731
     21 C         140.9684  143.6371  159.1943 C.3     1  UNL1        0.0294
     22 C         140.2715  142.3757  158.7778 C.3     1  UNL1        0.0666
     23 S         138.8734  142.1014  159.2469 S.3     1  UNL1       -0.0756
     24 C         138.4248  141.6160  163.0717 C.ar    1  UNL1        0.2029
     25 N         137.6690  142.8928  162.8508 N.ar    1  UNL1       -0.1250
     26 N         137.7451  143.2300  161.3912 N.ar    1  UNL1       -0.1220
     27 C         138.5479  142.1616  160.7099 C.ar    1  UNL1        0.1933
     28 N         138.9680  141.1641  161.7484 N.ar    1  UNL1       -0.2860
     29 C         139.7873  139.9312  161.5063 C.3     1  UNL1        0.1341
     30 C         139.8644  142.8541  165.7257 C.3     1  UNL1        0.0556
     31 C         139.2673  141.4834  165.6050 C.ar    1  UNL1        0.1001
     32 N         139.2271  140.4411  166.6829 N.ar    1  UNL1       -0.2085
     33 C         138.5405  139.2278  166.1292 C.ar    1  UNL1        0.2849
     34 O         138.1564  139.5202  164.7090 O.2     1  UNL1       -0.4283
     35 C         138.6056  140.9143  164.3850 C.ar    1  UNL1        0.1964
@<TRIPOS>BOND
     1    30    31    1
     2    31    32   ar
     3    32    33   ar
     4    33    34   ar
     5    34    35   ar
     6    35    24    1
     7    24    25   ar
     8    25    26   ar
     9    26    27   ar
    10    27    23    1
    11    23    22    1
    12    22    21    1
    13    21    20    1
    14    20     1    1
    15     1     2    1
    16     2     3    1
    17     3     4    1
    18     4     5    1
    19     5     6    1
    20     6     9    1
    21     9    10   ar
    22    10    11   ar
    23    11    12   ar
    24    12    15    1
    25    15    16    1
    26    16    17    1
    27    16    18    1
    28    16    19    1
    29    12    13   ar
    30    13    14   ar
    31     6     7    1
    32     7     8    1
    33    27    28   ar
    34    28    29    1
    35    35    31   ar
    36    28    24   ar
    37     8     1    1
    38     7     3    1
    39    14     9   ar
@<TRIPOS>MOLECULE
*****
 35 39 0 0 0
SMALL
GASTEIGER

@<TRIPOS>ATOM
      1 N         142.7021  141.2324  160.8746 N.3     1  UNL1       -0.2712
      2 C         142.5674  142.7098  160.6530 C.3     1  UNL1        0.0738
      3 C         142.2547  143.3498  161.9731 C.3     1  UNL1        0.0372
      4 C         141.9782  144.6585  162.6520 C.3     1  UNL1        0.0245
      5 C         141.7487  144.3855  164.1090 C.3     1  UNL1        0.0909
      6 N         141.8834  142.9080  164.3305 N.pl3   1  UNL1       -0.3077
      7 C         142.1961  142.2680  163.0105 C.3     1  UNL1        0.0901
      8 C         142.4726  140.9593  162.3315 C.3     1  UNL1        0.0921
      9 C         141.7319  142.1957  165.6419 C.ar    1  UNL1        0.0480
     10 C         142.5219  140.9500  165.9144 C.ar    1  UNL1        0.0176
     11 C         142.3704  140.2377  167.2258 C.ar    1  UNL1        0.0385
     12 C         141.4290  140.7711  168.2646 C.ar    1  UNL1        0.1469
     13 C         140.6390  142.0168  167.9921 C.ar    1  UNL1        0.0385
     14 C         140.7905  142.7291  166.6808 C.ar    1  UNL1        0.0176
     15 O         141.2776  140.0588  169.5760 O.3     1  UNL1       -0.4045
     16 C         142.4830  139.7908  170.4275 C.3     1  UNL1        0.5753
     17 F         143.6884  139.5228  171.2791 F       1  UNL1       -0.1328
     18 F         142.5497  141.2446  170.7906 F       1  UNL1       -0.1328
     19 F         142.4162  138.3369  170.0644 F       1  UNL1       -0.1328
     20 C         143.0118  140.2078  159.8237 C.3     1  UNL1        0.0731
     21 C         142.0096  139.9100  158.7481 C.3     1  UNL1        0.0294
     22 C         140.5492  139.8372  159.0830 C.3     1  UNL1        0.0666
     23 S         139.9659  138.5647  159.6221 S.3     1  UNL1       -0.0756
     24 C         139.4985  138.0619  163.4423 C.ar    1  UNL1        0.2029
     25 N         140.8856  137.5255  163.2469 N.ar    1  UNL1       -0.1250
     26 N         141.2296  137.6485  161.7920 N.ar    1  UNL1       -0.1220
     27 C         140.0550  138.2610  161.0883 C.ar    1  UNL1        0.1933
     28 N         138.9851  138.5165  162.1082 N.ar    1  UNL1       -0.2860
     29 C         137.6384  139.1205  161.8409 C.3     1  UNL1        0.1341
     30 C         138.4393  140.7809  164.9033 C.3     1  UNL1        0.0556
     31 C         138.2684  139.3813  165.4149 C.ar    1  UNL1        0.1001
     32 N         137.5806  138.9856  166.6879 N.ar    1  UNL1       -0.2085
     33 C         137.6424  137.4913  166.8031 C.ar    1  UNL1        0.2849
     34 O         138.3684  136.9634  165.6013 O.2     1  UNL1       -0.4283
     35 C         138.7552  138.1314  164.7434 C.ar    1  UNL1        0.1964
@<TRIPOS>BOND
     1    30    31    1
     2    31    32   ar
     3    32    33   ar
     4    33    34   ar
     5    34    35   ar
     6    35    24    1
     7    24    25   ar
     8    25    26   ar
     9    26    27   ar
    10    27    23    1
    11    23    22    1
    12    22    21    1
    13    21    20    1
    14    20     1    1
    15     1     2    1
    16     2     3    1
    17     3     4    1
    18     4     5    1
    19     5     6    1
    20     6     9    1
    21     9    10   ar
    22    10    11   ar
    23    11    12   ar
    24    12    15    1
    25    15    16    1
    26    16    17    1
    27    16    18    1
    28    16    19    1
    29    12    13   ar
    30    13    14   ar
    31     6     7    1
    32     7     8    1
    33    27    28   ar
    34    28    29    1
    35    35    31   ar
    36    28    24   ar
    37     8     1    1
    38     7     3    1
    39    14     9   ar
@<TRIPOS>MOLECULE
*****
 35 39 0 0 0
SMALL
GASTEIGER

@<TRIPOS>ATOM
      1 N         138.5562  141.0953  160.9603 N.3     1  UNL1       -0.2712
      2 C         138.3079  142.5717  160.8671 C.3     1  UNL1        0.0738
      3 C         138.4990  143.1609  162.2332 C.3     1  UNL1        0.0372
      4 C         138.4636  144.4376  163.0200 C.3     1  UNL1        0.0245
      5 C         138.8081  144.1144  164.4437 C.3     1  UNL1        0.0909
      6 N         139.0564  142.6380  164.5368 N.pl3   1  UNL1       -0.3077
      7 C         138.8653  142.0488  163.1707 C.3     1  UNL1        0.0901
      8 C         138.9007  140.7721  162.3840 C.3     1  UNL1        0.0921
      9 C         139.4301  141.8834  165.7782 C.ar    1  UNL1        0.0480
     10 C         138.9582  140.4724  165.9688 C.ar    1  UNL1        0.0176
     11 C         139.3319  139.7178  167.2101 C.ar    1  UNL1        0.0385
     12 C         140.1776  140.3742  168.2608 C.ar    1  UNL1        0.1469
     13 C         140.6495  141.7852  168.0702 C.ar    1  UNL1        0.0385
     14 C         140.2758  142.5399  166.8289 C.ar    1  UNL1        0.0176
     15 O         140.5513  139.6196  169.5022 O.3     1  UNL1       -0.4045
     16 C         141.9249  139.7691  170.0858 C.3     1  UNL1        0.5753
     17 F         143.2986  139.9187  170.6695 F       1  UNL1       -0.1328
     18 F         142.4931  138.9638  168.9550 F       1  UNL1       -0.1328
     19 F         141.3567  140.5744  171.2166 F       1  UNL1       -0.1328
     20 C         138.4744  140.1143  159.8285 C.3     1  UNL1        0.0731
     21 C         139.2825  138.8513  159.8708 C.3     1  UNL1        0.0294
     22 C         140.3105  138.5828  158.8119 C.3     1  UNL1        0.0666
     23 S         141.7281  139.0301  159.0122 S.3     1  UNL1       -0.0756
     24 C         142.7660  141.0467  162.1621 C.ar    1  UNL1        0.2029
     25 N         142.9314  139.6386  162.6519 N.ar    1  UNL1       -0.1250
     26 N         142.5628  138.7118  161.5316 N.ar    1  UNL1       -0.1220
     27 C         142.1695  139.5471  160.3494 C.ar    1  UNL1        0.1933
     28 N         142.2951  140.9901  160.7390 N.ar    1  UNL1       -0.2860
     29 C         142.0014  142.1696  159.8600 C.3     1  UNL1        0.1341
     30 C         145.5533  141.8082  163.6790 C.3     1  UNL1        0.0556
     31 C         144.3070  142.6426  163.6532 C.ar    1  UNL1        0.1001
     32 N         144.1231  143.9736  164.3201 N.ar    1  UNL1       -0.2085
     33 C         142.7283  144.4461  164.0351 C.ar    1  UNL1        0.2849
     34 O         142.0502  143.4072  163.1920 O.2     1  UNL1       -0.4283
     35 C         143.0259  142.2926  162.9560 C.ar    1  UNL1        0.1964
@<TRIPOS>BOND
     1    30    31    1
     2    31    32   ar
     3    32    33   ar
     4    33    34   ar
     5    34    35   ar
     6    35    24    1
     7    24    25   ar
     8    25    26   ar
     9    26    27   ar
    10    27    23    1
    11    23    22    1
    12    22    21    1
    13    21    20    1
    14    20     1    1
    15     1     2    1
    16     2     3    1
    17     3     4    1
    18     4     5    1
    19     5     6    1
    20     6     9    1
    21     9    10   ar
    22    10    11   ar
    23    11    12   ar
    24    12    15    1
    25    15    16    1
    26    16    17    1
    27    16    18    1
    28    16    19    1
    29    12    13   ar
    30    13    14   ar
    31     6     7    1
    32     7     8    1
    33    27    28   ar
    34    28    29    1
    35    35    31   ar
    36    28    24   ar
    37     8     1    1
    38     7     3    1
    39    14     9   ar
