@<TRIPOS>MOLECULE
*****
 27 29 0 0 0
SMALL
GASTEIGER

@<TRIPOS>ATOM
      1 C         139.2988  139.8285  164.0333 C.ar    1  UNL1        0.1525
      2 C         140.3382  140.7353  164.6227 C.ar    1  UNL1        0.1337
      3 N         140.4663  140.8611  166.1119 N.ar    1  UNL1       -0.2316
      4 C         139.5551  140.0802  167.0117 C.ar    1  UNL1        0.1420
      5 C         138.5157  139.1734  166.4223 C.ar    1  UNL1        0.1508
      6 N         137.6044  138.3924  167.3221 N.pl3   1  UNL1       -0.3410
      7 N         138.3876  139.0476  164.9331 N.ar    1  UNL1       -0.2128
      8 H         137.6884  138.4750  168.2996 H       1  UNL1        0.1438
      9 H         136.9222  137.7973  166.9353 H       1  UNL1        0.1438
     10 C         139.5683  138.7513  158.4111 C.3     1  UNL1        0.0157
     11 C         138.9145  139.4510  159.5656 C.3     1  UNL1        0.0422
     12 N         138.0644  139.9580  158.4385 N.3     1  UNL1       -0.3231
     13 C         137.9655  140.3268  160.3287 C.3     1  UNL1        0.0357
     14 C         138.0936  140.4527  161.8179 C.3     1  UNL1        0.0935
     15 N         139.1707  139.7027  162.5441 N.pl3   1  UNL1       -0.2919
     16 C         140.1197  138.8269  161.7810 C.3     1  UNL1        0.0935
     17 C         139.9916  138.7011  160.2918 C.3     1  UNL1        0.0357
     18 H         137.3500  140.5858  158.8072 H       1  UNL1        0.1188
     19 H         137.6162  139.1707  157.9700 H       1  UNL1        0.1188
     20 S         139.6832  140.2060  168.5009 S.3     1  UNL1       -0.0644
     21 C         140.7081  141.1292  169.0902 C.ar    1  UNL1        0.0415
     22 C         140.3359  142.5408  169.4352 C.ar    1  UNL1        0.0074
     23 C         141.3609  143.4640  170.0245 C.ar    1  UNL1        0.0006
     24 C         142.7579  142.9756  170.2687 C.ar    1  UNL1        0.0009
     25 C         143.1301  141.5641  169.9237 C.ar    1  UNL1        0.0119
     26 C         142.1052  140.6409  169.3344 C.ar    1  UNL1        0.0637
     27 CL        142.4774  139.2293  168.9895 Cl      1  UNL1       -0.0817
@<TRIPOS>BOND
     1    10    11    1
     2    11    12    1
     3    11    13    1
     4    13    14    1
     5    14    15    1
     6    15     1    1
     7     1     2   ar
     8     2     3   ar
     9     3     4   ar
    10     4    20    1
    11    20    21    1
    12    21    22   ar
    13    22    23   ar
    14    23    24   ar
    15    24    25   ar
    16    25    26   ar
    17    26    27    1
    18     4     5   ar
    19     5     6    1
    20     5     7   ar
    21    15    16    1
    22    16    17    1
    23    17    11    1
    24     7     1   ar
    25    26    21   ar
    26    12    18    1
    27    12    19    1
    28     6     8    1
    29     6     9    1
@<TRIPOS>MOLECULE
*****
 27 29 0 0 0
SMALL
GASTEIGER

@<TRIPOS>ATOM
      1 C         140.1293  142.1417  166.3321 C.ar    1  UNL1        0.1525
      2 C         139.8170  140.7456  165.8813 C.ar    1  UNL1        0.1337
      3 N         138.8917  140.5210  164.7222 N.ar    1  UNL1       -0.2316
      4 C         138.2788  141.6926  164.0139 C.ar    1  UNL1        0.1420
      5 C         138.5911  143.0887  164.4647 C.ar    1  UNL1        0.1508
      6 N         137.9782  144.2604  163.7564 N.pl3   1  UNL1       -0.3410
      7 N         139.5163  143.3133  165.6238 N.ar    1  UNL1       -0.2128
      8 H         137.3709  144.1130  162.9956 H       1  UNL1        0.1438
      9 H         138.1831  145.1767  164.0523 H       1  UNL1        0.1438
     10 C         144.3464  142.6311  170.1816 C.3     1  UNL1        0.0157
     11 C         142.9050  142.8154  169.8094 C.3     1  UNL1        0.0422
     12 N         142.8812  143.3438  171.2131 N.3     1  UNL1       -0.3231
     13 C         141.4554  143.1832  169.9246 C.3     1  UNL1        0.0357
     14 C         140.5302  142.9587  168.7656 C.3     1  UNL1        0.0935
     15 N         141.0545  142.3663  167.4912 N.pl3   1  UNL1       -0.2919
     16 C         142.5041  141.9985  167.3759 C.3     1  UNL1        0.0935
     17 C         143.4294  142.2230  168.5350 C.3     1  UNL1        0.0357
     18 H         141.9348  143.6433  171.4476 H       1  UNL1        0.1188
     19 H         143.5175  144.1375  171.2884 H       1  UNL1        0.1188
     20 S         137.3536  141.4680  162.8548 S.3     1  UNL1       -0.0644
     21 C         137.9120  141.2689  161.4770 C.ar    1  UNL1        0.0415
     22 C         138.3359  142.4540  160.6610 C.ar    1  UNL1        0.0074
     23 C         138.8944  142.2548  159.2832 C.ar    1  UNL1        0.0006
     24 C         139.0290  140.8705  158.7213 C.ar    1  UNL1        0.0009
     25 C         138.6052  139.6854  159.5373 C.ar    1  UNL1        0.0119
     26 C         138.0466  139.8846  160.9152 C.ar    1  UNL1        0.0637
     27 CL        137.6228  138.6995  161.7311 Cl      1  UNL1       -0.0817
@<TRIPOS>BOND
     1    10    11    1
     2    11    12    1
     3    11    13    1
     4    13    14    1
     5    14    15    1
     6    15     1    1
     7     1     2   ar
     8     2     3   ar
     9     3     4   ar
    10     4    20    1
    11    20    21    1
    12    21    22   ar
    13    22    23   ar
    14    23    24   ar
    15    24    25   ar
    16    25    26   ar
    17    26    27    1
    18     4     5   ar
    19     5     6    1
    20     5     7   ar
    21    15    16    1
    22    16    17    1
    23    17    11    1
    24     7     1   ar
    25    26    21   ar
    26    12    18    1
    27    12    19    1
    28     6     8    1
    29     6     9    1
@<TRIPOS>MOLECULE
*****
 27 29 0 0 0
SMALL
GASTEIGER

@<TRIPOS>ATOM
      1 C         142.6150  139.3240  163.9165 C.ar    1  UNL1        0.1525
      2 C         141.7370  140.3529  164.5649 C.ar    1  UNL1        0.1337
      3 N         141.6960  140.4694  166.0598 N.ar    1  UNL1       -0.2316
      4 C         142.5331  139.5569  166.9064 C.ar    1  UNL1        0.1420
      5 C         143.4111  138.5280  166.2580 C.ar    1  UNL1        0.1508
      6 N         144.2482  137.6155  167.1046 N.pl3   1  UNL1       -0.3410
      7 N         143.4520  138.4116  164.7631 N.ar    1  UNL1       -0.2128
      8 H         144.2214  137.6919  168.0857 H       1  UNL1        0.1438
      9 H         144.8245  136.9402  166.6790 H       1  UNL1        0.1438
     10 C         141.8905  138.4883  158.2935 C.3     1  UNL1        0.0157
     11 C         142.7378  138.9746  159.4318 C.3     1  UNL1        0.0422
     12 N         143.6477  139.2826  158.2797 N.3     1  UNL1       -0.3231
     13 C         143.9010  139.5679  160.1700 C.3     1  UNL1        0.0357
     14 C         143.8600  139.6844  161.6649 C.3     1  UNL1        0.0935
     15 N         142.6559  139.2076  162.4216 N.pl3   1  UNL1       -0.2919
     16 C         141.4927  138.6143  161.6834 C.3     1  UNL1        0.0935
     17 C         141.5336  138.4978  160.1885 C.3     1  UNL1        0.0357
     18 H         144.5084  139.7038  158.6294 H       1  UNL1        0.1188
     19 H         143.1845  139.9328  157.6449 H       1  UNL1        0.1188
     20 S         142.4922  139.6734  168.4013 S.3     1  UNL1       -0.0644
     21 C         141.6161  140.7040  169.0496 C.ar    1  UNL1        0.0415
     22 C         140.2050  140.3602  169.4247 C.ar    1  UNL1        0.0074
     23 C         139.3290  141.3909  170.0730 C.ar    1  UNL1        0.0006
     24 C         139.8640  142.7654  170.3461 C.ar    1  UNL1        0.0009
     25 C         141.2751  143.1092  169.9710 C.ar    1  UNL1        0.0119
     26 C         142.1512  142.0785  169.3227 C.ar    1  UNL1        0.0637
     27 CL        143.5622  142.4223  168.9475 Cl      1  UNL1       -0.0817
@<TRIPOS>BOND
     1    10    11    1
     2    11    12    1
     3    11    13    1
     4    13    14    1
     5    14    15    1
     6    15     1    1
     7     1     2   ar
     8     2     3   ar
     9     3     4   ar
    10     4    20    1
    11    20    21    1
    12    21    22   ar
    13    22    23   ar
    14    23    24   ar
    15    24    25   ar
    16    25    26   ar
    17    26    27    1
    18     4     5   ar
    19     5     6    1
    20     5     7   ar
    21    15    16    1
    22    16    17    1
    23    17    11    1
    24     7     1   ar
    25    26    21   ar
    26    12    18    1
    27    12    19    1
    28     6     8    1
    29     6     9    1
@<TRIPOS>MOLECULE
*****
 27 29 0 0 0
SMALL
GASTEIGER

@<TRIPOS>ATOM
      1 C         140.4792  140.2178  166.5447 C.ar    1  UNL1        0.1525
      2 C         141.1418  139.0001  165.9720 C.ar    1  UNL1        0.1337
      3 N         140.5916  138.3599  164.7321 N.ar    1  UNL1       -0.2316
      4 C         139.3787  138.9374  164.0648 C.ar    1  UNL1        0.1420
      5 C         138.7160  140.1551  164.6375 C.ar    1  UNL1        0.1508
      6 N         137.5031  140.7327  163.9702 N.pl3   1  UNL1       -0.3410
      7 N         139.2663  140.7953  165.8774 N.ar    1  UNL1       -0.2128
      8 H         137.1419  140.3125  163.1564 H       1  UNL1        0.1438
      9 H         137.0681  141.5319  164.3461 H       1  UNL1        0.1438
     10 C         143.1636  143.1441  170.6765 C.3     1  UNL1        0.0157
     11 C         142.1298  142.1383  170.2645 C.3     1  UNL1        0.0422
     12 N         141.9391  142.1134  171.7521 N.3     1  UNL1       -0.3231
     13 C         141.0299  141.1239  170.3690 C.3     1  UNL1        0.0357
     14 C         140.4796  140.4837  169.1291 C.3     1  UNL1        0.0935
     15 N         141.0294  140.8580  167.7846 N.pl3   1  UNL1       -0.2919
     16 C         142.1293  141.8724  167.6800 C.3     1  UNL1        0.0935
     17 C         142.6796  142.5126  168.9200 C.3     1  UNL1        0.0357
     18 H         141.2013  141.4501  171.9892 H       1  UNL1        0.1188
     19 H         141.6769  143.0440  172.0769 H       1  UNL1        0.1188
     20 S         138.8285  138.2972  162.8249 S.3     1  UNL1       -0.0644
     21 C         139.4673  138.5670  161.4948 C.ar    1  UNL1        0.0415
     22 C         140.8918  138.1649  161.2516 C.ar    1  UNL1        0.0074
     23 C         141.5306  138.4348  159.9215 C.ar    1  UNL1        0.0006
     24 C         140.7449  139.1066  158.8346 C.ar    1  UNL1        0.0009
     25 C         139.3204  139.5087  159.0778 C.ar    1  UNL1        0.0119
     26 C         138.6816  139.2389  160.4080 C.ar    1  UNL1        0.0637
     27 CL        137.2571  139.6409  160.6512 Cl      1  UNL1       -0.0817
@<TRIPOS>BOND
     1    10    11    1
     2    11    12    1
     3    11    13    1
     4    13    14    1
     5    14    15    1
     6    15     1    1
     7     1     2   ar
     8     2     3   ar
     9     3     4   ar
    10     4    20    1
    11    20    21    1
    12    21    22   ar
    13    22    23   ar
    14    23    24   ar
    15    24    25   ar
    16    25    26   ar
    17    26    27    1
    18     4     5   ar
    19     5     6    1
    20     5     7   ar
    21    15    16    1
    22    16    17    1
    23    17    11    1
    24     7     1   ar
    25    26    21   ar
    26    12    18    1
    27    12    19    1
    28     6     8    1
    29     6     9    1
@<TRIPOS>MOLECULE
*****
 27 29 0 0 0
SMALL
GASTEIGER

@<TRIPOS>ATOM
      1 C         141.2291  139.8866  166.5491 C.ar    1  UNL1        0.1525
      2 C         139.7964  139.5303  166.2840 C.ar    1  UNL1        0.1337
      3 N         139.4248  138.8033  165.0257 N.ar    1  UNL1       -0.2316
      4 C         140.4859  138.4325  164.0325 C.ar    1  UNL1        0.1420
      5 C         141.9186  138.7887  164.2977 C.ar    1  UNL1        0.1508
      6 N         142.9799  138.4179  163.3045 N.pl3   1  UNL1       -0.3410
      7 N         142.2902  139.5158  165.5560 N.ar    1  UNL1       -0.2128
      8 H         142.7360  137.9407  162.4786 H       1  UNL1        0.1438
      9 H         143.9202  138.6517  163.4785 H       1  UNL1        0.1438
     10 C         143.2323  143.1845  170.7862 C.3     1  UNL1        0.0157
     11 C         142.3438  142.0677  170.3241 C.3     1  UNL1        0.0422
     12 N         142.0247  142.0649  171.7898 N.3     1  UNL1       -0.3231
     13 C         141.3446  140.9500  170.3709 C.3     1  UNL1        0.0357
     14 C         140.9730  140.2229  169.1126 C.3     1  UNL1        0.0935
     15 N         141.6007  140.6136  167.8074 N.pl3   1  UNL1       -0.2919
     16 C         142.5999  141.7313  167.7606 C.3     1  UNL1        0.0935
     17 C         142.9715  142.4584  169.0189 C.3     1  UNL1        0.0357
     18 H         141.3380  141.3369  171.9868 H       1  UNL1        0.1188
     19 H         141.6439  142.9727  172.0566 H       1  UNL1        0.1188
     20 S         140.1143  137.7054  162.7742 S.3     1  UNL1       -0.0644
     21 C         139.4675  138.4475  161.6424 C.ar    1  UNL1        0.0415
     22 C         138.0601  138.9476  161.7806 C.ar    1  UNL1        0.0074
     23 C         137.4133  139.6896  160.6488 C.ar    1  UNL1        0.0006
     24 C         138.1739  139.9316  159.3788 C.ar    1  UNL1        0.0009
     25 C         139.5813  139.4315  159.2406 C.ar    1  UNL1        0.0119
     26 C         140.2281  138.6894  160.3724 C.ar    1  UNL1        0.0637
     27 CL        141.6355  138.1893  160.2342 Cl      1  UNL1       -0.0817
@<TRIPOS>BOND
     1    10    11    1
     2    11    12    1
     3    11    13    1
     4    13    14    1
     5    14    15    1
     6    15     1    1
     7     1     2   ar
     8     2     3   ar
     9     3     4   ar
    10     4    20    1
    11    20    21    1
    12    21    22   ar
    13    22    23   ar
    14    23    24   ar
    15    24    25   ar
    16    25    26   ar
    17    26    27    1
    18     4     5   ar
    19     5     6    1
    20     5     7   ar
    21    15    16    1
    22    16    17    1
    23    17    11    1
    24     7     1   ar
    25    26    21   ar
    26    12    18    1
    27    12    19    1
    28     6     8    1
    29     6     9    1
@<TRIPOS>MOLECULE
*****
 27 29 0 0 0
SMALL
GASTEIGER

@<TRIPOS>ATOM
      1 C         140.0556  141.6052  165.6487 C.ar    1  UNL1        0.1525
      2 C         140.9112  142.5872  164.9047 C.ar    1  UNL1        0.1337
      3 N         140.4367  143.1590  163.6017 N.ar    1  UNL1       -0.2316
      4 C         139.1066  142.7489  163.0427 C.ar    1  UNL1        0.1420
      5 C         138.2510  141.7669  163.7867 C.ar    1  UNL1        0.1508
      6 N         136.9208  141.3567  163.2277 N.pl3   1  UNL1       -0.3410
      7 N         138.7255  141.1951  165.0897 N.ar    1  UNL1       -0.2128
      8 H         136.6093  141.7320  162.3725 H       1  UNL1        0.1438
      9 H         136.3592  140.7122  163.7160 H       1  UNL1        0.1438
     10 C         142.7556  139.6260  170.3000 C.3     1  UNL1        0.0157
     11 C         141.4790  139.8897  169.5578 C.3     1  UNL1        0.0422
     12 N         140.9294  139.2774  170.8120 N.3     1  UNL1       -0.3231
     13 C         140.0116  139.9408  169.2512 C.3     1  UNL1        0.0357
     14 C         139.5371  140.5127  167.9482 C.3     1  UNL1        0.0935
     15 N         140.5301  141.0334  166.9518 N.pl3   1  UNL1       -0.2919
     16 C         141.9975  140.9823  167.2584 C.3     1  UNL1        0.0935
     17 C         142.4720  140.4105  168.5614 C.3     1  UNL1        0.0357
     18 H         139.9117  139.2411  170.7549 H       1  UNL1        0.1188
     19 H         141.2050  139.8424  171.6153 H       1  UNL1        0.1188
     20 S         138.6321  143.3207  161.7397 S.3     1  UNL1       -0.0644
     21 C         139.6181  143.6268  160.6516 C.ar    1  UNL1        0.0415
     22 C         140.0148  142.5582  159.6764 C.ar    1  UNL1        0.0074
     23 C         141.0008  142.8643  158.5883 C.ar    1  UNL1        0.0006
     24 C         141.5902  144.2390  158.4753 C.ar    1  UNL1        0.0009
     25 C         141.1936  145.3076  159.4503 C.ar    1  UNL1        0.0119
     26 C         140.2075  145.0015  160.5385 C.ar    1  UNL1        0.0637
     27 CL        139.8109  146.0701  161.5136 Cl      1  UNL1       -0.0817
@<TRIPOS>BOND
     1    10    11    1
     2    11    12    1
     3    11    13    1
     4    13    14    1
     5    14    15    1
     6    15     1    1
     7     1     2   ar
     8     2     3   ar
     9     3     4   ar
    10     4    20    1
    11    20    21    1
    12    21    22   ar
    13    22    23   ar
    14    23    24   ar
    15    24    25   ar
    16    25    26   ar
    17    26    27    1
    18     4     5   ar
    19     5     6    1
    20     5     7   ar
    21    15    16    1
    22    16    17    1
    23    17    11    1
    24     7     1   ar
    25    26    21   ar
    26    12    18    1
    27    12    19    1
    28     6     8    1
    29     6     9    1
@<TRIPOS>MOLECULE
*****
 27 29 0 0 0
SMALL
GASTEIGER

@<TRIPOS>ATOM
      1 C         140.9246  144.7282  159.3753 C.ar    1  UNL1        0.1525
      2 C         142.2062  143.9489  159.3761 C.ar    1  UNL1        0.1337
      3 N         142.9768  143.7737  160.6511 N.ar    1  UNL1       -0.2316
      4 C         142.4656  144.3778  161.9253 C.ar    1  UNL1        0.1420
      5 C         141.1840  145.1571  161.9246 C.ar    1  UNL1        0.1508
      6 N         140.6728  145.7613  163.1989 N.pl3   1  UNL1       -0.3410
      7 N         140.4135  145.3323  160.6496 N.ar    1  UNL1       -0.2128
      8 H         141.1785  145.6463  164.0357 H       1  UNL1        0.1438
      9 H         139.8316  146.2727  163.1984 H       1  UNL1        0.1438
     10 C         137.7694  144.4579  154.5989 C.3     1  UNL1        0.0157
     11 C         138.6130  145.2537  155.5504 C.3     1  UNL1        0.0422
     12 N         138.2760  146.3178  154.5483 N.3     1  UNL1       -0.3231
     13 C         139.3395  146.4190  156.1538 C.3     1  UNL1        0.0357
     14 C         140.1100  146.2438  157.4288 C.3     1  UNL1        0.0935
     15 N         140.1541  144.9033  158.1004 N.pl3   1  UNL1       -0.2919
     16 C         139.4276  143.7380  157.4969 C.3     1  UNL1        0.0935
     17 C         138.6570  143.9132  156.2220 C.3     1  UNL1        0.0357
     18 H         138.7107  147.1974  154.8273 H       1  UNL1        0.1188
     19 H         137.2639  146.4371  154.5063 H       1  UNL1        0.1188
     20 S         143.2362  144.2027  163.2003 S.3     1  UNL1       -0.0644
     21 C         143.6854  142.8355  163.6234 C.ar    1  UNL1        0.0415
     22 C         145.0665  142.3605  163.2810 C.ar    1  UNL1        0.0074
     23 C         145.5157  140.9933  163.7041 C.ar    1  UNL1        0.0006
     24 C         144.5839  140.1011  164.4695 C.ar    1  UNL1        0.0009
     25 C         143.2029  140.5761  164.8118 C.ar    1  UNL1        0.0119
     26 C         142.7536  141.9433  164.3887 C.ar    1  UNL1        0.0637
     27 CL        141.3726  142.4183  164.7311 Cl      1  UNL1       -0.0817
@<TRIPOS>BOND
     1    10    11    1
     2    11    12    1
     3    11    13    1
     4    13    14    1
     5    14    15    1
     6    15     1    1
     7     1     2   ar
     8     2     3   ar
     9     3     4   ar
    10     4    20    1
    11    20    21    1
    12    21    22   ar
    13    22    23   ar
    14    23    24   ar
    15    24    25   ar
    16    25    26   ar
    17    26    27    1
    18     4     5   ar
    19     5     6    1
    20     5     7   ar
    21    15    16    1
    22    16    17    1
    23    17    11    1
    24     7     1   ar
    25    26    21   ar
    26    12    18    1
    27    12    19    1
    28     6     8    1
    29     6     9    1
@<TRIPOS>MOLECULE
*****
 27 29 0 0 0
SMALL
GASTEIGER

@<TRIPOS>ATOM
      1 C         139.6568  140.0674  165.5328 C.ar    1  UNL1        0.1525
      2 C         138.4965  140.4199  164.6499 C.ar    1  UNL1        0.1337
      3 N         138.3335  139.7448  163.3203 N.ar    1  UNL1       -0.2316
      4 C         139.3306  138.7171  162.8737 C.ar    1  UNL1        0.1420
      5 C         140.4909  138.3646  163.7566 C.ar    1  UNL1        0.1508
      6 N         141.4881  137.3369  163.3100 N.pl3   1  UNL1       -0.3410
      7 N         140.6539  139.0397  165.0861 N.ar    1  UNL1       -0.2128
      8 H         141.3811  136.8938  162.4374 H       1  UNL1        0.1438
      9 H         142.2496  137.1055  163.8895 H       1  UNL1        0.1438
     10 C         140.6237  143.3918  170.0995 C.3     1  UNL1        0.0157
     11 C         140.1459  142.0927  169.5213 C.3     1  UNL1        0.0422
     12 N         139.9180  141.8280  170.9801 N.3     1  UNL1       -0.3231
     13 C         139.5891  140.7018  169.4498 C.3     1  UNL1        0.0357
     14 C         139.4260  140.0267  168.1202 C.3     1  UNL1        0.0935
     15 N         139.8198  140.7425  166.8623 N.pl3   1  UNL1       -0.2919
     16 C         140.3767  142.1334  166.9339 C.3     1  UNL1        0.0935
     17 C         140.5397  142.8085  168.2634 C.3     1  UNL1        0.0357
     18 H         139.5296  140.8925  171.0993 H       1  UNL1        0.1188
     19 H         139.2650  142.5173  171.3528 H       1  UNL1        0.1188
     20 S         139.1676  138.0420  161.5442 S.3     1  UNL1       -0.0644
     21 C         139.6713  138.7079  160.2981 C.ar    1  UNL1        0.0415
     22 C         141.0693  138.4469  159.8209 C.ar    1  UNL1        0.0074
     23 C         141.5730  139.1128  158.5748 C.ar    1  UNL1        0.0006
     24 C         140.6789  140.0397  157.8059 C.ar    1  UNL1        0.0009
     25 C         139.2810  140.3007  158.2830 C.ar    1  UNL1        0.0119
     26 C         138.7772  139.6348  159.5291 C.ar    1  UNL1        0.0637
     27 CL        137.3793  139.8959  160.0063 Cl      1  UNL1       -0.0817
@<TRIPOS>BOND
     1    10    11    1
     2    11    12    1
     3    11    13    1
     4    13    14    1
     5    14    15    1
     6    15     1    1
     7     1     2   ar
     8     2     3   ar
     9     3     4   ar
    10     4    20    1
    11    20    21    1
    12    21    22   ar
    13    22    23   ar
    14    23    24   ar
    15    24    25   ar
    16    25    26   ar
    17    26    27    1
    18     4     5   ar
    19     5     6    1
    20     5     7   ar
    21    15    16    1
    22    16    17    1
    23    17    11    1
    24     7     1   ar
    25    26    21   ar
    26    12    18    1
    27    12    19    1
    28     6     8    1
    29     6     9    1
@<TRIPOS>MOLECULE
*****
 27 29 0 0 0
SMALL
GASTEIGER

@<TRIPOS>ATOM
      1 C         140.5021  145.0106  157.7906 C.ar    1  UNL1        0.1525
      2 C         139.5497  143.8728  158.0101 C.ar    1  UNL1        0.1337
      3 N         139.5453  143.1403  159.3191 N.ar    1  UNL1       -0.2316
      4 C         140.4933  143.5456  160.4085 C.ar    1  UNL1        0.1420
      5 C         141.4457  144.6835  160.1890 C.ar    1  UNL1        0.1508
      6 N         142.3938  145.0889  161.2785 N.pl3   1  UNL1       -0.3410
      7 N         141.4501  145.4160  158.8800 N.ar    1  UNL1       -0.2128
      8 H         142.3909  144.6081  162.1376 H       1  UNL1        0.1438
      9 H         143.0189  145.8357  161.1344 H       1  UNL1        0.1438
     10 C         141.1758  147.1526  152.5180 C.3     1  UNL1        0.0157
     11 C         140.5152  147.2081  153.8636 C.3     1  UNL1        0.0422
     12 N         139.8614  148.3859  153.2037 N.3     1  UNL1       -0.3231
     13 C         139.6276  147.6726  154.9800 C.3     1  UNL1        0.0357
     14 C         139.6232  146.9401  156.2890 C.3     1  UNL1        0.0935
     15 N         140.5065  145.7431  156.4816 N.pl3   1  UNL1       -0.2919
     16 C         141.3941  145.2787  155.3652 C.3     1  UNL1        0.0935
     17 C         141.3985  146.0112  154.0562 C.3     1  UNL1        0.0357
     18 H         139.2092  148.8220  153.8555 H       1  UNL1        0.1188
     19 H         139.3557  148.0737  152.3747 H       1  UNL1        0.1188
     20 S         140.4889  142.8131  161.7175 S.3     1  UNL1       -0.0644
     21 C         139.5909  143.2691  162.8291 C.ar    1  UNL1        0.0415
     22 C         140.0377  144.3626  163.7536 C.ar    1  UNL1        0.0074
     23 C         139.1397  144.8185  164.8652 C.ar    1  UNL1        0.0006
     24 C         137.7949  144.1810  165.0523 C.ar    1  UNL1        0.0009
     25 C         137.3481  143.0876  164.1278 C.ar    1  UNL1        0.0119
     26 C         138.2461  142.6316  163.0162 C.ar    1  UNL1        0.0637
     27 CL        137.7992  141.5382  162.0917 Cl      1  UNL1       -0.0817
@<TRIPOS>BOND
     1    10    11    1
     2    11    12    1
     3    11    13    1
     4    13    14    1
     5    14    15    1
     6    15     1    1
     7     1     2   ar
     8     2     3   ar
     9     3     4   ar
    10     4    20    1
    11    20    21    1
    12    21    22   ar
    13    22    23   ar
    14    23    24   ar
    15    24    25   ar
    16    25    26   ar
    17    26    27    1
    18     4     5   ar
    19     5     6    1
    20     5     7   ar
    21    15    16    1
    22    16    17    1
    23    17    11    1
    24     7     1   ar
    25    26    21   ar
    26    12    18    1
    27    12    19    1
    28     6     8    1
    29     6     9    1
