@<TRIPOS>MOLECULE
*****
 29 32 0 0 0
SMALL
GASTEIGER

@<TRIPOS>ATOM
      1 C         139.8611  139.9700  166.9924 C.ar    1  UNL1        0.1057
      2 C         138.6028  139.3160  166.5038 C.ar    1  UNL1        0.0199
      3 C         138.6204  138.5039  165.2428 C.ar    1  UNL1        0.0205
      4 C         139.8965  138.3458  164.4704 C.ar    1  UNL1        0.0847
      5 N         139.9142  137.5337  163.2094 N.ar    1  UNL1       -0.2436
      6 C         141.1902  137.3756  162.4369 C.ar    1  UNL1        0.1023
      7 C         142.4486  138.0296  162.9255 C.ar    1  UNL1        0.0608
      8 C         142.4310  138.8417  164.1865 C.ar    1  UNL1        0.1386
      9 C         141.1548  138.9998  164.9590 C.ar    1  UNL1        0.0558
     10 C         141.1372  139.8119  166.2200 C.ar    1  UNL1        0.0232
     11 S         139.8435  140.7821  168.2535 S.O2    1  UNL1        0.0054
     12 O         139.0568  139.7033  168.9372 O.2     1  UNL1       -0.1687
     13 O         140.6301  141.8608  167.5698 O.2     1  UNL1       -0.1687
     14 C         139.0213  140.5247  170.1920 C.3     1  UNL1        0.0240
     15 C         139.8258  141.5942  169.5145 C.3     1  UNL1        0.1151
     16 C         140.6303  142.6637  168.8370 C.3     1  UNL1        0.0240
     17 C         139.8081  142.4063  170.7755 C.3     1  UNL1        0.0240
     18 N         143.6893  139.4957  164.6751 N.pl3   1  UNL1       -0.1969
     19 H         144.1450  139.1495  165.4763 H       1  UNL1        0.2986
     20 C         144.2536  140.6772  163.9431 C.2     1  UNL1        0.3531
     21 N         145.5349  140.7016  163.1637 N.2     1  UNL1        0.0802
     22 N         145.7088  142.0812  162.6009 N.2     1  UNL1       -0.0381
     23 C         144.5349  142.9093  163.0326 C.2     1  UNL1        0.1170
     24 C         144.1687  144.3413  162.7775 C.3     1  UNL1        0.0783
     25 C         142.9032  144.9056  163.3519 C.2     1  UNL1        0.0100
     26 C         142.0038  144.0379  164.1815 C.2     1  UNL1        0.1366
     27 F         140.7383  144.6022  164.7559 F       1  UNL1       -0.2045
     28 C         142.3700  142.6058  164.4366 C.2     1  UNL1        0.0381
     29 C         143.6355  142.0415  163.8621 C.2     1  UNL1        0.1045
@<TRIPOS>BOND
     1    14    15    1
     2    15    16    1
     3    15    17    1
     4    15    11    1
     5    11    12    2
     6    11    13    2
     7    11     1    1
     8     1     2   ar
     9     2     3   ar
    10     3     4   ar
    11     4     5   ar
    12     5     6   ar
    13     6     7   ar
    14     7     8   ar
    15     8    18    1
    16    18    20    1
    17    20    21    2
    18    21    22    1
    19    22    23    2
    20    23    24    1
    21    24    25    1
    22    25    26    2
    23    26    27    1
    24    26    28    1
    25    28    29    2
    26     8     9   ar
    27     9    10   ar
    28    10     1   ar
    29     9     4   ar
    30    29    20    1
    31    29    23    1
    32    18    19    1
@<TRIPOS>MOLECULE
*****
 29 32 0 0 0
SMALL
GASTEIGER

@<TRIPOS>ATOM
      1 C         139.3866  139.7406  166.5458 C.ar    1  UNL1        0.1057
      2 C         139.2566  138.3520  165.9936 C.ar    1  UNL1        0.0199
      3 C         138.7884  138.1464  164.5835 C.ar    1  UNL1        0.0205
      4 C         138.4502  139.3294  163.7255 C.ar    1  UNL1        0.0847
      5 N         137.9820  139.1238  162.3153 N.ar    1  UNL1       -0.2436
      6 C         137.6438  140.3068  161.4574 C.ar    1  UNL1        0.1023
      7 C         137.7737  141.6954  162.0096 C.ar    1  UNL1        0.0608
      8 C         138.2419  141.9010  163.4197 C.ar    1  UNL1        0.1386
      9 C         138.5802  140.7179  164.2777 C.ar    1  UNL1        0.0558
     10 C         139.0483  140.9235  165.6879 C.ar    1  UNL1        0.0232
     11 S         139.8548  139.9461  167.9560 S.O2    1  UNL1        0.0054
     12 O         138.5730  139.3581  168.4672 O.2     1  UNL1       -0.1687
     13 O         141.1365  140.5342  167.4447 O.2     1  UNL1       -0.1687
     14 C         138.9076  140.3920  169.8010 C.3     1  UNL1        0.0240
     15 C         140.3229  140.1517  169.3661 C.3     1  UNL1        0.1151
     16 C         141.7383  139.9114  168.9312 C.3     1  UNL1        0.0240
     17 C         140.7911  140.3573  170.7763 C.3     1  UNL1        0.0240
     18 N         138.3719  143.2896  163.9719 N.pl3   1  UNL1       -0.1969
     19 H         137.7065  143.6284  164.6135 H       1  UNL1        0.2986
     20 C         139.5157  144.1618  163.5466 C.2     1  UNL1        0.3531
     21 N         139.4294  145.3412  162.6238 N.2     1  UNL1        0.0802
     22 N         140.8070  145.9162  162.4763 N.2     1  UNL1       -0.0381
     23 C         141.7447  145.0921  163.3080 C.2     1  UNL1        0.1170
     24 C         143.2221  145.1889  163.5485 C.3     1  UNL1        0.0783
     25 C         143.9014  144.2016  164.4504 C.2     1  UNL1        0.0100
     26 C         143.1034  143.1173  165.1120 C.2     1  UNL1        0.1366
     27 F         143.7827  142.1300  166.0139 F       1  UNL1       -0.2045
     28 C         141.6260  143.0205  164.8715 C.2     1  UNL1        0.0381
     29 C         140.9466  144.0079  163.9695 C.2     1  UNL1        0.1045
@<TRIPOS>BOND
     1    14    15    1
     2    15    16    1
     3    15    17    1
     4    15    11    1
     5    11    12    2
     6    11    13    2
     7    11     1    1
     8     1     2   ar
     9     2     3   ar
    10     3     4   ar
    11     4     5   ar
    12     5     6   ar
    13     6     7   ar
    14     7     8   ar
    15     8    18    1
    16    18    20    1
    17    20    21    2
    18    21    22    1
    19    22    23    2
    20    23    24    1
    21    24    25    1
    22    25    26    2
    23    26    27    1
    24    26    28    1
    25    28    29    2
    26     8     9   ar
    27     9    10   ar
    28    10     1   ar
    29     9     4   ar
    30    29    20    1
    31    29    23    1
    32    18    19    1
@<TRIPOS>MOLECULE
*****
 29 32 0 0 0
SMALL
GASTEIGER

@<TRIPOS>ATOM
      1 C         141.7047  139.4081  166.3057 C.ar    1  UNL1        0.1057
      2 C         142.3790  138.1919  165.7435 C.ar    1  UNL1        0.0199
      3 C         141.8356  137.5364  164.5086 C.ar    1  UNL1        0.0205
      4 C         140.6179  138.0971  163.8358 C.ar    1  UNL1        0.0847
      5 N         140.0745  137.4416  162.6009 N.ar    1  UNL1       -0.2436
      6 C         138.8568  138.0023  161.9281 C.ar    1  UNL1        0.1023
      7 C         138.1823  139.2186  162.4903 C.ar    1  UNL1        0.0608
      8 C         138.7257  139.8741  163.7252 C.ar    1  UNL1        0.1386
      9 C         139.9436  139.3133  164.3980 C.ar    1  UNL1        0.0558
     10 C         140.4870  139.9688  165.6329 C.ar    1  UNL1        0.0232
     11 S         142.2481  140.0636  167.5406 S.O2    1  UNL1        0.0054
     12 O         143.1380  138.8796  167.7775 O.2     1  UNL1       -0.1687
     13 O         141.3581  141.2477  167.3037 O.2     1  UNL1       -0.1687
     14 C         143.0111  141.9876  168.0056 C.3     1  UNL1        0.0240
     15 C         142.7915  140.7192  168.7755 C.3     1  UNL1        0.1151
     16 C         142.5718  139.4507  169.5455 C.3     1  UNL1        0.0240
     17 C         143.3349  141.3747  170.0104 C.3     1  UNL1        0.0240
     18 N         138.0514  141.0903  164.2873 N.pl3   1  UNL1       -0.1969
     19 H         137.4564  141.0070  165.0673 H       1  UNL1        0.2986
     20 C         138.2835  142.4335  163.6611 C.2     1  UNL1        0.3531
     21 N         137.2863  143.2168  162.8598 N.2     1  UNL1        0.0802
     22 N         137.9401  144.4966  162.4297 N.2     1  UNL1       -0.0381
     23 C         139.3412  144.5041  162.9653 C.2     1  UNL1        0.1170
     24 C         140.4513  145.5073  162.8583 C.3     1  UNL1        0.0783
     25 C         141.7734  145.2354  163.5123 C.2     1  UNL1        0.0100
     26 C         141.9857  143.9603  164.2734 C.2     1  UNL1        0.1366
     27 F         143.3079  143.6885  164.9274 F       1  UNL1       -0.2045
     28 C         140.8757  142.9572  164.3804 C.2     1  UNL1        0.0381
     29 C         139.5535  143.2291  163.7263 C.2     1  UNL1        0.1045
@<TRIPOS>BOND
     1    14    15    1
     2    15    16    1
     3    15    17    1
     4    15    11    1
     5    11    12    2
     6    11    13    2
     7    11     1    1
     8     1     2   ar
     9     2     3   ar
    10     3     4   ar
    11     4     5   ar
    12     5     6   ar
    13     6     7   ar
    14     7     8   ar
    15     8    18    1
    16    18    20    1
    17    20    21    2
    18    21    22    1
    19    22    23    2
    20    23    24    1
    21    24    25    1
    22    25    26    2
    23    26    27    1
    24    26    28    1
    25    28    29    2
    26     8     9   ar
    27     9    10   ar
    28    10     1   ar
    29     9     4   ar
    30    29    20    1
    31    29    23    1
    32    18    19    1
@<TRIPOS>MOLECULE
*****
 29 32 0 0 0
SMALL
GASTEIGER

@<TRIPOS>ATOM
      1 C         139.6632  140.6501  167.2845 C.ar    1  UNL1        0.1057
      2 C         138.7218  139.5171  167.0015 C.ar    1  UNL1        0.0199
      3 C         138.1037  139.3773  165.6419 C.ar    1  UNL1        0.0205
      4 C         138.4271  140.3705  164.5653 C.ar    1  UNL1        0.0847
      5 N         137.8090  140.2307  163.2057 N.ar    1  UNL1       -0.2436
      6 C         138.1324  141.2238  162.1291 C.ar    1  UNL1        0.1023
      7 C         139.0739  142.3568  162.4121 C.ar    1  UNL1        0.0608
      8 C         139.6920  142.4966  163.7717 C.ar    1  UNL1        0.1386
      9 C         139.3685  141.5034  164.8483 C.ar    1  UNL1        0.0558
     10 C         139.9866  141.6432  166.2079 C.ar    1  UNL1        0.0232
     11 S         140.2813  140.7899  168.6440 S.O2    1  UNL1        0.0054
     12 O         139.4140  139.6767  169.1528 O.2     1  UNL1       -0.1687
     13 O         141.1486  141.9030  168.1353 O.2     1  UNL1       -0.1687
     14 C         140.2306  142.2619  170.1706 C.3     1  UNL1        0.0240
     15 C         140.8994  140.9296  170.0036 C.3     1  UNL1        0.1151
     16 C         141.5681  139.5974  169.8366 C.3     1  UNL1        0.0240
     17 C         141.5174  141.0694  171.3632 C.3     1  UNL1        0.0240
     18 N         140.6334  143.6295  164.0547 N.pl3   1  UNL1       -0.1969
     19 H         140.3398  144.3859  164.6123 H       1  UNL1        0.2986
     20 C         142.0222  143.6101  163.4881 C.2     1  UNL1        0.3531
     21 N         142.6176  144.6433  162.5782 N.2     1  UNL1        0.0802
     22 N         144.0228  144.2258  162.2596 N.2     1  UNL1       -0.0381
     23 C         144.2956  142.9345  162.9726 C.2     1  UNL1        0.1170
     24 C         145.5101  142.0561  163.0286 C.3     1  UNL1        0.0783
     25 C         145.4883  140.7972  163.8437 C.2     1  UNL1        0.0100
     26 C         144.2518  140.4166  164.6030 C.2     1  UNL1        0.1366
     27 F         144.2299  139.1577  165.4181 F       1  UNL1       -0.2045
     28 C         143.0372  141.2950  164.5470 C.2     1  UNL1        0.0381
     29 C         143.0591  142.5540  163.7318 C.2     1  UNL1        0.1045
@<TRIPOS>BOND
     1    14    15    1
     2    15    16    1
     3    15    17    1
     4    15    11    1
     5    11    12    2
     6    11    13    2
     7    11     1    1
     8     1     2   ar
     9     2     3   ar
    10     3     4   ar
    11     4     5   ar
    12     5     6   ar
    13     6     7   ar
    14     7     8   ar
    15     8    18    1
    16    18    20    1
    17    20    21    2
    18    21    22    1
    19    22    23    2
    20    23    24    1
    21    24    25    1
    22    25    26    2
    23    26    27    1
    24    26    28    1
    25    28    29    2
    26     8     9   ar
    27     9    10   ar
    28    10     1   ar
    29     9     4   ar
    30    29    20    1
    31    29    23    1
    32    18    19    1
@<TRIPOS>MOLECULE
*****
 29 32 0 0 0
SMALL
GASTEIGER

@<TRIPOS>ATOM
      1 C         142.8080  142.3919  166.0970 C.ar    1  UNL1        0.1057
      2 C         144.0522  143.1403  165.7204 C.ar    1  UNL1        0.0199
      3 C         144.1246  143.8625  164.4077 C.ar    1  UNL1        0.0205
      4 C         142.9528  143.8364  163.4717 C.ar    1  UNL1        0.0847
      5 N         143.0252  144.5586  162.1590 N.ar    1  UNL1       -0.2436
      6 C         141.8535  144.5325  161.2229 C.ar    1  UNL1        0.1023
      7 C         140.6092  143.7841  161.5996 C.ar    1  UNL1        0.0608
      8 C         140.5368  143.0619  162.9122 C.ar    1  UNL1        0.1386
      9 C         141.7086  143.0881  163.8483 C.ar    1  UNL1        0.0558
     10 C         141.6362  142.3658  165.1610 C.ar    1  UNL1        0.0232
     11 S         142.7356  141.6697  167.4097 S.O2    1  UNL1        0.0054
     12 O         141.8462  140.6328  166.7901 O.2     1  UNL1       -0.1687
     13 O         143.6250  142.7066  168.0293 O.2     1  UNL1       -0.1687
     14 C         143.4504  142.0473  169.3709 C.3     1  UNL1        0.0240
     15 C         142.6632  140.9475  168.7224 C.3     1  UNL1        0.1151
     16 C         141.8759  139.8477  168.0738 C.3     1  UNL1        0.0240
     17 C         142.5907  140.2252  170.0351 C.3     1  UNL1        0.0240
     18 N         139.2926  142.3135  163.2889 N.pl3   1  UNL1       -0.1969
     19 H         138.5006  142.8040  163.6074 H       1  UNL1        0.2986
     20 C         139.2550  140.8179  163.1802 C.2     1  UNL1        0.3531
     21 N         139.5535  140.0158  161.9483 N.2     1  UNL1        0.0802
     22 N         139.3954  138.5639  162.2910 N.2     1  UNL1       -0.0381
     23 C         138.9992  138.4689  163.7346 C.2     1  UNL1        0.1170
     24 C         138.7062  137.2940  164.6198 C.3     1  UNL1        0.0783
     25 C         138.3265  137.5119  166.0544 C.2     1  UNL1        0.0100
     26 C         138.2397  138.9050  166.6040 C.2     1  UNL1        0.1366
     27 F         137.8600  139.1230  168.0385 F       1  UNL1       -0.2045
     28 C         138.5327  140.0800  165.7188 C.2     1  UNL1        0.0381
     29 C         138.9125  139.8620  164.2841 C.2     1  UNL1        0.1045
@<TRIPOS>BOND
     1    14    15    1
     2    15    16    1
     3    15    17    1
     4    15    11    1
     5    11    12    2
     6    11    13    2
     7    11     1    1
     8     1     2   ar
     9     2     3   ar
    10     3     4   ar
    11     4     5   ar
    12     5     6   ar
    13     6     7   ar
    14     7     8   ar
    15     8    18    1
    16    18    20    1
    17    20    21    2
    18    21    22    1
    19    22    23    2
    20    23    24    1
    21    24    25    1
    22    25    26    2
    23    26    27    1
    24    26    28    1
    25    28    29    2
    26     8     9   ar
    27     9    10   ar
    28    10     1   ar
    29     9     4   ar
    30    29    20    1
    31    29    23    1
    32    18    19    1
@<TRIPOS>MOLECULE
*****
 29 32 0 0 0
SMALL
GASTEIGER

@<TRIPOS>ATOM
      1 C         142.8843  140.2443  167.1615 C.ar    1  UNL1        0.1057
      2 C         143.2681  138.8464  166.7759 C.ar    1  UNL1        0.0199
      3 C         143.6776  138.5431  165.3652 C.ar    1  UNL1        0.0205
      4 C         143.7034  139.6377  164.3399 C.ar    1  UNL1        0.0847
      5 N         144.1129  139.3343  162.9291 N.ar    1  UNL1       -0.2436
      6 C         144.1387  140.4289  161.9038 C.ar    1  UNL1        0.1023
      7 C         143.7550  141.8269  162.2893 C.ar    1  UNL1        0.0608
      8 C         143.3455  142.1302  163.7001 C.ar    1  UNL1        0.1386
      9 C         143.3197  141.0355  164.7254 C.ar    1  UNL1        0.0558
     10 C         142.9102  141.3388  166.1362 C.ar    1  UNL1        0.0232
     11 S         142.4748  140.5476  168.5722 S.O2    1  UNL1        0.0054
     12 O         142.1064  141.9435  168.1652 O.2     1  UNL1       -0.1687
     13 O         142.8432  139.1517  168.9793 O.2     1  UNL1       -0.1687
     14 C         142.8981  142.0982  169.9566 C.3     1  UNL1        0.0240
     15 C         142.0653  140.8509  169.9830 C.3     1  UNL1        0.1151
     16 C         141.2325  139.6036  170.0094 C.3     1  UNL1        0.0240
     17 C         141.6558  141.1542  171.3938 C.3     1  UNL1        0.0240
     18 N         142.9617  143.5281  164.0856 N.pl3   1  UNL1       -0.1969
     19 H         143.5593  144.0627  164.6569 H       1  UNL1        0.2986
     20 C         141.6676  144.1113  163.6008 C.2     1  UNL1        0.3531
     21 N         141.5108  145.3847  162.8236 N.2     1  UNL1        0.0802
     22 N         140.0493  145.5840  162.5505 N.2     1  UNL1       -0.0381
     23 C         139.3030  144.4338  163.1590 C.2     1  UNL1        0.1170
     24 C         137.8419  144.0976  163.2059 C.3     1  UNL1        0.0783
     25 C         137.3810  142.8514  163.9017 C.2     1  UNL1        0.0100
     26 C         138.3811  141.9412  164.5509 C.2     1  UNL1        0.1366
     27 F         137.9202  140.6950  165.2468 F       1  UNL1       -0.2045
     28 C         139.8422  142.2774  164.5040 C.2     1  UNL1        0.0381
     29 C         140.3031  143.5237  163.8081 C.2     1  UNL1        0.1045
@<TRIPOS>BOND
     1    14    15    1
     2    15    16    1
     3    15    17    1
     4    15    11    1
     5    11    12    2
     6    11    13    2
     7    11     1    1
     8     1     2   ar
     9     2     3   ar
    10     3     4   ar
    11     4     5   ar
    12     5     6   ar
    13     6     7   ar
    14     7     8   ar
    15     8    18    1
    16    18    20    1
    17    20    21    2
    18    21    22    1
    19    22    23    2
    20    23    24    1
    21    24    25    1
    22    25    26    2
    23    26    27    1
    24    26    28    1
    25    28    29    2
    26     8     9   ar
    27     9    10   ar
    28    10     1   ar
    29     9     4   ar
    30    29    20    1
    31    29    23    1
    32    18    19    1
@<TRIPOS>MOLECULE
*****
 29 32 0 0 0
SMALL
GASTEIGER

@<TRIPOS>ATOM
      1 C         142.6178  141.2273  167.2017 C.ar    1  UNL1        0.1057
      2 C         143.3476  142.5374  167.2331 C.ar    1  UNL1        0.0199
      3 C         144.1568  142.9737  166.0479 C.ar    1  UNL1        0.0205
      4 C         144.2363  142.1000  164.8313 C.ar    1  UNL1        0.0847
      5 N         145.0456  142.5363  163.6460 N.ar    1  UNL1       -0.2436
      6 C         145.1250  141.6625  162.4294 C.ar    1  UNL1        0.1023
      7 C         144.3952  140.3524  162.3980 C.ar    1  UNL1        0.0608
      8 C         143.5860  139.9161  163.5832 C.ar    1  UNL1        0.1386
      9 C         143.5065  140.7899  164.7999 C.ar    1  UNL1        0.0558
     10 C         142.6972  140.3536  165.9851 C.ar    1  UNL1        0.0232
     11 S         141.8085  140.7910  168.3869 S.O2    1  UNL1        0.0054
     12 O         143.0098  140.0907  168.9493 O.2     1  UNL1       -0.1687
     13 O         140.6072  141.4913  167.8244 O.2     1  UNL1       -0.1687
     14 C         142.0597  139.3554  169.9283 C.3     1  UNL1        0.0240
     15 C         140.9992  140.3547  169.5721 C.3     1  UNL1        0.1151
     16 C         139.9388  141.3540  169.2159 C.3     1  UNL1        0.0240
     17 C         140.1900  139.9184  170.7573 C.3     1  UNL1        0.0240
     18 N         142.8562  138.6060  163.5518 N.pl3   1  UNL1       -0.1969
     19 H         143.2314  137.8222  164.0146 H       1  UNL1        0.2986
     20 C         141.5545  138.4900  162.8153 C.2     1  UNL1        0.3531
     21 N         141.2649  137.5544  161.6791 N.2     1  UNL1        0.0802
     22 N         139.8454  137.7754  161.2472 N.2     1  UNL1       -0.0381
     23 C         139.2579  138.8474  162.1166 C.2     1  UNL1        0.1170
     24 C         137.8976  139.4785  162.1509 C.3     1  UNL1        0.0783
     25 C         137.5936  140.5512  163.1543 C.2     1  UNL1        0.0100
     26 C         138.6499  140.9928  164.1234 C.2     1  UNL1        0.1366
     27 F         138.3459  142.0655  165.1268 F       1  UNL1       -0.2045
     28 C         140.0102  140.3617  164.0891 C.2     1  UNL1        0.0381
     29 C         140.3142  139.2890  163.0856 C.2     1  UNL1        0.1045
@<TRIPOS>BOND
     1    14    15    1
     2    15    16    1
     3    15    17    1
     4    15    11    1
     5    11    12    2
     6    11    13    2
     7    11     1    1
     8     1     2   ar
     9     2     3   ar
    10     3     4   ar
    11     4     5   ar
    12     5     6   ar
    13     6     7   ar
    14     7     8   ar
    15     8    18    1
    16    18    20    1
    17    20    21    2
    18    21    22    1
    19    22    23    2
    20    23    24    1
    21    24    25    1
    22    25    26    2
    23    26    27    1
    24    26    28    1
    25    28    29    2
    26     8     9   ar
    27     9    10   ar
    28    10     1   ar
    29     9     4   ar
    30    29    20    1
    31    29    23    1
    32    18    19    1
@<TRIPOS>MOLECULE
*****
 29 32 0 0 0
SMALL
GASTEIGER

@<TRIPOS>ATOM
      1 C         140.5496  138.6444  163.9647 C.ar    1  UNL1        0.1057
      2 C         139.2782  137.9098  164.2709 C.ar    1  UNL1        0.0199
      3 C         138.5959  138.1097  165.5916 C.ar    1  UNL1        0.0205
      4 C         139.1850  139.0443  166.6063 C.ar    1  UNL1        0.0847
      5 N         138.5027  139.2442  167.9271 N.ar    1  UNL1       -0.2436
      6 C         139.0918  140.1787  168.9417 C.ar    1  UNL1        0.1023
      7 C         140.3633  140.9133  168.6356 C.ar    1  UNL1        0.0608
      8 C         141.0456  140.7134  167.3148 C.ar    1  UNL1        0.1386
      9 C         140.4564  139.7789  166.3002 C.ar    1  UNL1        0.0558
     10 C         141.1387  139.5789  164.9794 C.ar    1  UNL1        0.0232
     11 S         141.2319  138.4445  162.6439 S.O2    1  UNL1        0.0054
     12 O         141.5244  139.9140  162.5726 O.2     1  UNL1       -0.1687
     13 O         140.9394  136.9750  162.7152 O.2     1  UNL1       -0.1687
     14 C         143.2208  138.0358  162.0297 C.3     1  UNL1        0.0240
     15 C         141.9142  138.2446  161.3231 C.3     1  UNL1        0.1151
     16 C         140.6076  138.4534  160.6166 C.3     1  UNL1        0.0240
     17 C         142.5965  138.0447  160.0023 C.3     1  UNL1        0.0240
     18 N         142.3170  141.4480  167.0087 N.pl3   1  UNL1       -0.1969
     19 H         143.0966  141.3512  167.6021 H       1  UNL1        0.2986
     20 C         142.4008  142.3302  165.7984 C.2     1  UNL1        0.3531
     21 N         143.5913  142.4819  164.8986 N.2     1  UNL1        0.0802
     22 N         143.2350  143.4611  163.8195 N.2     1  UNL1       -0.0381
     23 C         141.8242  143.9144  164.0524 C.2     1  UNL1        0.1170
     24 C         140.9425  144.8734  163.3088 C.3     1  UNL1        0.0783
     25 C         139.5452  145.1334  163.7882 C.2     1  UNL1        0.0100
     26 C         139.0296  144.4345  165.0113 C.2     1  UNL1        0.1366
     27 F         137.6323  144.6946  165.4907 F       1  UNL1       -0.2045
     28 C         139.9113  143.4756  165.7548 C.2     1  UNL1        0.0381
     29 C         141.3087  143.2156  165.2754 C.2     1  UNL1        0.1045
@<TRIPOS>BOND
     1    14    15    1
     2    15    16    1
     3    15    17    1
     4    15    11    1
     5    11    12    2
     6    11    13    2
     7    11     1    1
     8     1     2   ar
     9     2     3   ar
    10     3     4   ar
    11     4     5   ar
    12     5     6   ar
    13     6     7   ar
    14     7     8   ar
    15     8    18    1
    16    18    20    1
    17    20    21    2
    18    21    22    1
    19    22    23    2
    20    23    24    1
    21    24    25    1
    22    25    26    2
    23    26    27    1
    24    26    28    1
    25    28    29    2
    26     8     9   ar
    27     9    10   ar
    28    10     1   ar
    29     9     4   ar
    30    29    20    1
    31    29    23    1
    32    18    19    1
@<TRIPOS>MOLECULE
*****
 29 32 0 0 0
SMALL
GASTEIGER

@<TRIPOS>ATOM
      1 C         140.7411  139.5677  165.9183 C.ar    1  UNL1        0.1057
      2 C         141.6151  138.4591  165.4112 C.ar    1  UNL1        0.0199
      3 C         141.3307  137.8291  164.0799 C.ar    1  UNL1        0.0205
      4 C         140.1724  138.3076  163.2558 C.ar    1  UNL1        0.0847
      5 N         139.8881  137.6776  161.9245 N.ar    1  UNL1       -0.2436
      6 C         138.7298  138.1561  161.1004 C.ar    1  UNL1        0.1023
      7 C         137.8557  139.2648  161.6075 C.ar    1  UNL1        0.0608
      8 C         138.1400  139.8948  162.9387 C.ar    1  UNL1        0.1386
      9 C         139.2984  139.4162  163.7629 C.ar    1  UNL1        0.0558
     10 C         139.5828  140.0462  165.0941 C.ar    1  UNL1        0.0232
     11 S         141.0254  140.1977  167.2495 S.O2    1  UNL1        0.0054
     12 O         142.4949  139.9851  167.0363 O.2     1  UNL1       -0.1687
     13 O         139.5559  140.4103  167.4627 O.2     1  UNL1       -0.1687
     14 C         140.4673  142.0094  168.2014 C.3     1  UNL1        0.0240
     15 C         141.3097  140.8277  168.5808 C.3     1  UNL1        0.1151
     16 C         142.1521  139.6460  168.9601 C.3     1  UNL1        0.0240
     17 C         141.5941  141.4577  169.9120 C.3     1  UNL1        0.0240
     18 N         137.2661  141.0033  163.4458 N.pl3   1  UNL1       -0.1969
     19 H         136.3361  140.8158  163.7089 H       1  UNL1        0.2986
     20 C         137.8090  142.3976  163.5521 C.2     1  UNL1        0.3531
     21 N         137.6941  143.3000  164.7448 N.2     1  UNL1        0.0802
     22 N         138.3762  144.5944  164.4142 N.2     1  UNL1       -0.0381
     23 C         138.9127  144.4920  163.0171 C.2     1  UNL1        0.1170
     24 C         139.6751  145.4596  162.1612 C.3     1  UNL1        0.0783
     25 C         140.0869  145.0695  160.7727 C.2     1  UNL1        0.0100
     26 C         139.7363  143.7118  160.2398 C.2     1  UNL1        0.1366
     27 F         140.1482  143.3218  158.8513 F       1  UNL1       -0.2045
     28 C         138.9739  142.7442  161.0957 C.2     1  UNL1        0.0381
     29 C         138.5621  143.1343  162.4843 C.2     1  UNL1        0.1045
@<TRIPOS>BOND
     1    14    15    1
     2    15    16    1
     3    15    17    1
     4    15    11    1
     5    11    12    2
     6    11    13    2
     7    11     1    1
     8     1     2   ar
     9     2     3   ar
    10     3     4   ar
    11     4     5   ar
    12     5     6   ar
    13     6     7   ar
    14     7     8   ar
    15     8    18    1
    16    18    20    1
    17    20    21    2
    18    21    22    1
    19    22    23    2
    20    23    24    1
    21    24    25    1
    22    25    26    2
    23    26    27    1
    24    26    28    1
    25    28    29    2
    26     8     9   ar
    27     9    10   ar
    28    10     1   ar
    29     9     4   ar
    30    29    20    1
    31    29    23    1
    32    18    19    1
