@<TRIPOS>MOLECULE
*****
 29 33 0 0 0
SMALL
GASTEIGER

@<TRIPOS>ATOM
      1 C         138.6487  137.9924  162.6092 C.3     1  UNL1        0.0294
      2 C         137.7958  138.7919  161.6693 C.3     1  UNL1        0.0666
      3 S         137.7116  140.2823  161.8167 S.3     1  UNL1       -0.0756
      4 C         140.9374  142.1821  162.8415 C.ar    1  UNL1        0.2029
      5 N         140.1657  142.2064  164.1275 N.ar    1  UNL1       -0.1250
      6 N         138.8635  141.4977  163.9002 N.ar    1  UNL1       -0.1220
      7 C         138.8302  141.0354  162.4736 C.ar    1  UNL1        0.1933
      8 N         140.1120  141.4584  161.8193 N.ar    1  UNL1       -0.2860
      9 C         140.5002  141.2026  160.3932 C.3     1  UNL1        0.1341
     10 C         141.7741  145.2965  163.3418 C.3     1  UNL1        0.0556
     11 C         142.6805  144.2086  162.8470 C.ar    1  UNL1        0.1001
     12 N         144.1307  144.3612  162.4953 N.ar    1  UNL1       -0.2085
     13 C         144.6423  143.0240  162.0480 C.ar    1  UNL1        0.2849
     14 O         143.5085  142.0450  162.1232 O.2     1  UNL1       -0.4283
     15 C         142.2960  142.7771  162.6170 C.ar    1  UNL1        0.1964
     16 C         140.0952  137.7546  162.2913 C.3     1  UNL1        0.0730
     17 N         141.1610  138.2929  163.1992 N.3     1  UNL1       -0.2724
     18 C         142.5882  138.5595  162.8225 C.3     1  UNL1        0.0724
     19 C         143.2960  139.0905  164.0338 C.3     1  UNL1        0.0214
     20 C         143.7240  139.5873  165.3828 C.3     1  UNL1        0.0072
     21 C         142.3062  139.1520  165.1592 C.3     1  UNL1        0.0350
     22 C         140.9867  138.6590  164.6434 C.3     1  UNL1        0.0761
     23 C         141.8354  139.4271  166.5565 C.ar    1  UNL1       -0.0214
     24 C         140.4119  139.8309  166.8025 C.ar    1  UNL1       -0.0037
     25 C         139.9411  140.1061  168.2000 C.ar    1  UNL1        0.0064
     26 C         140.8939  139.9773  169.3514 C.ar    1  UNL1        0.0345
     27 BR        140.4232  140.2525  170.7487 Br      1  UNL1       -0.0490
     28 C         142.3175  139.5735  169.1053 C.ar    1  UNL1        0.0064
     29 C         142.7882  139.2984  167.7079 C.ar    1  UNL1       -0.0037
@<TRIPOS>BOND
     1    10    11    1
     2    11    12   ar
     3    12    13   ar
     4    13    14   ar
     5    14    15   ar
     6    15     4    1
     7     4     5   ar
     8     5     6   ar
     9     6     7   ar
    10     7     3    1
    11     3     2    1
    12     2     1    1
    13     1    16    1
    14    16    17    1
    15    17    18    1
    16    18    19    1
    17    19    20    1
    18    20    21    1
    19    21    23    1
    20    23    24   ar
    21    24    25   ar
    22    25    26   ar
    23    26    27    1
    24    26    28   ar
    25    28    29   ar
    26    21    22    1
    27     7     8   ar
    28     8     9    1
    29    15    11   ar
    30     8     4   ar
    31    22    17    1
    32    21    19    1
    33    29    23   ar
@<TRIPOS>MOLECULE
*****
 29 33 0 0 0
SMALL
GASTEIGER

@<TRIPOS>ATOM
      1 C         140.8904  144.9757  159.6133 C.3     1  UNL1        0.0294
      2 C         139.8148  144.0286  159.1706 C.3     1  UNL1        0.0666
      3 S         139.8596  142.5909  159.5962 S.3     1  UNL1       -0.0756
      4 C         138.4719  140.9756  162.8412 C.ar    1  UNL1        0.2029
      5 N         137.3683  141.9319  162.4986 N.ar    1  UNL1       -0.1250
      6 N         137.7537  142.6534  161.2414 N.ar    1  UNL1       -0.1220
      7 C         139.0957  142.1430  160.8069 C.ar    1  UNL1        0.1933
      8 N         139.5395  141.1060  161.7957 N.ar    1  UNL1       -0.2860
      9 C         140.8252  140.3349  161.7474 C.3     1  UNL1        0.1341
     10 C         138.7601  137.7269  162.7272 C.3     1  UNL1        0.0556
     11 C         138.6350  138.5579  163.9697 C.ar    1  UNL1        0.1001
     12 N         138.6204  138.0415  165.3779 N.ar    1  UNL1       -0.2085
     13 C         138.4789  139.2156  166.3007 C.ar    1  UNL1        0.2849
     14 O         138.4061  140.4575  165.4628 O.2     1  UNL1       -0.4283
     15 C         138.5025  140.0511  164.0221 C.ar    1  UNL1        0.1964
     16 C         141.6254  144.7285  160.8973 C.3     1  UNL1        0.0730
     17 N         140.8681  144.6330  162.1886 N.3     1  UNL1       -0.2724
     18 C         139.6461  145.4222  162.5546 C.3     1  UNL1        0.0724
     19 C         139.2226  145.0085  163.9328 C.3     1  UNL1        0.0214
     20 C         139.0469  144.4033  165.2940 C.3     1  UNL1        0.0072
     21 C         140.1829  143.9636  164.4186 C.3     1  UNL1        0.0350
     22 C         141.1998  143.7315  163.3407 C.3     1  UNL1        0.0761
     23 C         140.7521  142.9702  165.3877 C.ar    1  UNL1       -0.0214
     24 C         141.7713  141.9712  164.9258 C.ar    1  UNL1       -0.0037
     25 C         142.3406  140.9778  165.8949 C.ar    1  UNL1        0.0064
     26 C         141.8906  140.9833  167.3258 C.ar    1  UNL1        0.0345
     27 BR        142.4598  139.9899  168.2949 Br      1  UNL1       -0.0490
     28 C         140.8713  141.9823  167.7877 C.ar    1  UNL1        0.0064
     29 C         140.3021  142.9757  166.8186 C.ar    1  UNL1       -0.0037
@<TRIPOS>BOND
     1    10    11    1
     2    11    12   ar
     3    12    13   ar
     4    13    14   ar
     5    14    15   ar
     6    15     4    1
     7     4     5   ar
     8     5     6   ar
     9     6     7   ar
    10     7     3    1
    11     3     2    1
    12     2     1    1
    13     1    16    1
    14    16    17    1
    15    17    18    1
    16    18    19    1
    17    19    20    1
    18    20    21    1
    19    21    23    1
    20    23    24   ar
    21    24    25   ar
    22    25    26   ar
    23    26    27    1
    24    26    28   ar
    25    28    29   ar
    26    21    22    1
    27     7     8   ar
    28     8     9    1
    29    15    11   ar
    30     8     4   ar
    31    22    17    1
    32    21    19    1
    33    29    23   ar
@<TRIPOS>MOLECULE
*****
 29 33 0 0 0
SMALL
GASTEIGER

@<TRIPOS>ATOM
      1 C         145.0232  142.3509  161.7937 C.3     1  UNL1        0.0294
      2 C         144.4459  142.5843  160.4291 C.3     1  UNL1        0.0666
      3 S         144.1748  141.4219  159.5206 S.3     1  UNL1       -0.0756
      4 C         141.5912  138.8956  160.9376 C.ar    1  UNL1        0.2029
      5 N         142.7481  137.9893  160.6371 N.ar    1  UNL1       -0.1250
      6 N         143.8566  138.8253  160.0698 N.ar    1  UNL1       -0.1220
      7 C         143.3850  140.2483  160.0195 C.ar    1  UNL1        0.1933
      8 N         141.9848  140.2917  160.5559 N.ar    1  UNL1       -0.2860
      9 C         141.1287  141.5164  160.6874 C.3     1  UNL1        0.1341
     10 C         141.1573  137.1973  163.6902 C.3     1  UNL1        0.0556
     11 C         140.0728  137.6983  162.7830 C.ar    1  UNL1        0.1001
     12 N         138.5984  137.5065  162.9819 N.ar    1  UNL1       -0.2085
     13 C         137.8867  138.1687  161.8395 C.ar    1  UNL1        0.2849
     14 O         138.9211  138.7696  160.9347 O.2     1  UNL1       -0.4283
     15 C         140.2722  138.4788  161.5179 C.ar    1  UNL1        0.1964
     16 C         144.1391  142.4183  163.0036 C.3     1  UNL1        0.0730
     17 N         144.0119  141.2276  163.9069 N.3     1  UNL1       -0.2724
     18 C         144.8212  139.9673  163.8237 C.3     1  UNL1        0.0724
     19 C         144.3626  139.0489  164.9174 C.3     1  UNL1        0.0214
     20 C         143.7060  138.3640  166.0792 C.3     1  UNL1        0.0072
     21 C         143.2698  139.7415  165.6765 C.3     1  UNL1        0.0350
     22 C         143.0531  141.0880  165.0520 C.3     1  UNL1        0.0761
     23 C         142.2198  139.8899  166.7374 C.ar    1  UNL1       -0.0214
     24 C         140.8159  140.2562  166.3570 C.ar    1  UNL1       -0.0037
     25 C         139.7658  140.4047  167.4179 C.ar    1  UNL1        0.0064
     26 C         140.1198  140.1866  168.8592 C.ar    1  UNL1        0.0345
     27 BR        139.0698  140.3350  169.9201 Br      1  UNL1       -0.0490
     28 C         141.5238  139.8202  169.2395 C.ar    1  UNL1        0.0064
     29 C         142.5738  139.6718  168.1787 C.ar    1  UNL1       -0.0037
@<TRIPOS>BOND
     1    10    11    1
     2    11    12   ar
     3    12    13   ar
     4    13    14   ar
     5    14    15   ar
     6    15     4    1
     7     4     5   ar
     8     5     6   ar
     9     6     7   ar
    10     7     3    1
    11     3     2    1
    12     2     1    1
    13     1    16    1
    14    16    17    1
    15    17    18    1
    16    18    19    1
    17    19    20    1
    18    20    21    1
    19    21    23    1
    20    23    24   ar
    21    24    25   ar
    22    25    26   ar
    23    26    27    1
    24    26    28   ar
    25    28    29   ar
    26    21    22    1
    27     7     8   ar
    28     8     9    1
    29    15    11   ar
    30     8     4   ar
    31    22    17    1
    32    21    19    1
    33    29    23   ar
@<TRIPOS>MOLECULE
*****
 29 33 0 0 0
SMALL
GASTEIGER

@<TRIPOS>ATOM
      1 C         138.6154  138.0935  161.9538 C.3     1  UNL1        0.0294
      2 C         137.7509  139.2740  161.6235 C.3     1  UNL1        0.0666
      3 S         138.1536  140.2153  160.5272 S.3     1  UNL1       -0.0756
      4 C         140.3903  143.1887  161.6320 C.ar    1  UNL1        0.2029
      5 N         139.1734  143.9107  161.1342 N.ar    1  UNL1       -0.1250
      6 N         138.1874  142.8848  160.6598 N.ar    1  UNL1       -0.1220
      7 C         138.7950  141.5287  160.8643 C.ar    1  UNL1        0.1933
      8 N         140.1564  141.7166  161.4652 N.ar    1  UNL1       -0.2860
      9 C         141.1156  140.6240  161.8345 C.3     1  UNL1        0.1341
     10 C         143.3652  143.1318  160.2917 C.3     1  UNL1        0.0556
     11 C         142.9918  143.8008  161.5813 C.ar    1  UNL1        0.1001
     12 N         143.9204  144.5610  162.4812 N.ar    1  UNL1       -0.2085
     13 C         143.1268  145.0570  163.6535 C.ar    1  UNL1        0.2849
     14 O         141.7079  144.6034  163.4781 O.2     1  UNL1       -0.4283
     15 C         141.6245  143.8270  162.1974 C.ar    1  UNL1        0.1964
     16 C         138.7439  137.6322  163.3753 C.3     1  UNL1        0.0730
     17 N         139.9708  137.9750  164.1671 N.3     1  UNL1       -0.2724
     18 C         141.3190  137.3326  164.0264 C.3     1  UNL1        0.0724
     19 C         142.2465  137.9810  165.0110 C.3     1  UNL1        0.0214
     20 C         142.9216  138.7995  166.0713 C.3     1  UNL1        0.0072
     21 C         141.4715  139.0242  165.7602 C.3     1  UNL1        0.0350
     22 C         140.0651  139.0204  165.2386 C.3     1  UNL1        0.0761
     23 C         141.2627  140.1165  166.7667 C.ar    1  UNL1       -0.0214
     24 C         142.2328  141.2577  166.8471 C.ar    1  UNL1       -0.0037
     25 C         142.0239  142.3502  167.8537 C.ar    1  UNL1        0.0064
     26 C         140.8449  142.3014  168.7797 C.ar    1  UNL1        0.0345
     27 BR        140.6360  143.3937  169.7862 Br      1  UNL1       -0.0490
     28 C         139.8748  141.1601  168.6993 C.ar    1  UNL1        0.0064
     29 C         140.0837  140.0677  167.6928 C.ar    1  UNL1       -0.0037
@<TRIPOS>BOND
     1    10    11    1
     2    11    12   ar
     3    12    13   ar
     4    13    14   ar
     5    14    15   ar
     6    15     4    1
     7     4     5   ar
     8     5     6   ar
     9     6     7   ar
    10     7     3    1
    11     3     2    1
    12     2     1    1
    13     1    16    1
    14    16    17    1
    15    17    18    1
    16    18    19    1
    17    19    20    1
    18    20    21    1
    19    21    23    1
    20    23    24   ar
    21    24    25   ar
    22    25    26   ar
    23    26    27    1
    24    26    28   ar
    25    28    29   ar
    26    21    22    1
    27     7     8   ar
    28     8     9    1
    29    15    11   ar
    30     8     4   ar
    31    22    17    1
    32    21    19    1
    33    29    23   ar
@<TRIPOS>MOLECULE
*****
 29 33 0 0 0
SMALL
GASTEIGER

@<TRIPOS>ATOM
      1 C         141.9749  144.5611  160.7550 C.3     1  UNL1        0.0294
      2 C         140.5436  144.7315  160.3400 C.3     1  UNL1        0.0666
      3 S         139.7014  143.5272  160.0392 S.3     1  UNL1       -0.0756
      4 C         138.6460  141.1385  162.9107 C.ar    1  UNL1        0.2029
      5 N         137.4623  142.0577  162.8485 N.ar    1  UNL1       -0.1250
      6 N         137.7136  143.0644  161.7653 N.ar    1  UNL1       -0.1220
      7 C         139.0526  142.7673  161.1580 C.ar    1  UNL1        0.1933
      8 N         139.6288  141.5771  161.8659 N.ar    1  UNL1       -0.2860
      9 C         140.9552  140.9377  161.5793 C.3     1  UNL1        0.1341
     10 C         139.6849  141.3189  165.9990 C.3     1  UNL1        0.0556
     11 C         139.2944  140.0664  165.2719 C.ar    1  UNL1        0.1001
     12 N         139.3128  138.6770  165.8367 N.ar    1  UNL1       -0.2085
     13 C         138.8467  137.7353  164.7662 C.ar    1  UNL1        0.2849
     14 O         138.5402  138.5427  163.5399 O.2     1  UNL1       -0.4283
     15 C         138.8169  139.9835  163.8524 C.ar    1  UNL1        0.1964
     16 C         142.3389  144.5602  162.2101 C.3     1  UNL1        0.0730
     17 N         143.1901  143.4592  162.7697 N.3     1  UNL1       -0.2724
     18 C         144.4242  142.8896  162.1352 C.3     1  UNL1        0.0724
     19 C         144.9535  141.8128  163.0354 C.3     1  UNL1        0.0214
     20 C         145.2371  140.8112  164.1154 C.3     1  UNL1        0.0072
     21 C         144.0465  141.7168  164.2262 C.3     1  UNL1        0.0350
     22 C         142.9567  142.7343  164.0620 C.3     1  UNL1        0.0761
     23 C         143.5641  141.1812  165.5417 C.ar    1  UNL1       -0.0214
     24 C         143.3359  142.1149  166.6932 C.ar    1  UNL1       -0.0037
     25 C         142.8535  141.5794  168.0088 C.ar    1  UNL1        0.0064
     26 C         142.5993  140.1102  168.1727 C.ar    1  UNL1        0.0345
     27 BR        142.1170  139.5747  169.4882 Br      1  UNL1       -0.0490
     28 C         142.8276  139.1765  167.0211 C.ar    1  UNL1        0.0064
     29 C         143.3100  139.7120  165.7056 C.ar    1  UNL1       -0.0037
@<TRIPOS>BOND
     1    10    11    1
     2    11    12   ar
     3    12    13   ar
     4    13    14   ar
     5    14    15   ar
     6    15     4    1
     7     4     5   ar
     8     5     6   ar
     9     6     7   ar
    10     7     3    1
    11     3     2    1
    12     2     1    1
    13     1    16    1
    14    16    17    1
    15    17    18    1
    16    18    19    1
    17    19    20    1
    18    20    21    1
    19    21    23    1
    20    23    24   ar
    21    24    25   ar
    22    25    26   ar
    23    26    27    1
    24    26    28   ar
    25    28    29   ar
    26    21    22    1
    27     7     8   ar
    28     8     9    1
    29    15    11   ar
    30     8     4   ar
    31    22    17    1
    32    21    19    1
    33    29    23   ar
@<TRIPOS>MOLECULE
*****
 29 33 0 0 0
SMALL
GASTEIGER

@<TRIPOS>ATOM
      1 C         144.0726  144.2904  164.1531 C.3     1  UNL1        0.0294
      2 C         142.8383  145.0677  163.8032 C.3     1  UNL1        0.0666
      3 S         141.9364  144.5884  162.7046 S.3     1  UNL1       -0.0756
      4 C         139.5388  141.5411  162.8768 C.ar    1  UNL1        0.2029
      5 N         139.0083  142.3907  163.9934 N.ar    1  UNL1       -0.1250
      6 N         139.8419  143.6356  164.0648 N.ar    1  UNL1       -0.1220
      7 C         140.8876  143.5554  162.9923 C.ar    1  UNL1        0.1933
      8 N         140.7001  142.2609  162.2581 N.ar    1  UNL1       -0.2860
      9 C         141.5288  141.7722  161.1072 C.3     1  UNL1        0.1341
     10 C         141.0686  138.6745  163.1802 C.3     1  UNL1        0.0556
     11 C         139.7051  138.8884  162.5927 C.ar    1  UNL1        0.1001
     12 N         138.8054  137.8222  162.0415 N.ar    1  UNL1       -0.2085
     13 C         137.5462  138.4809  161.5614 C.ar    1  UNL1        0.2849
     14 O         137.6677  139.9541  161.8158 O.2     1  UNL1       -0.4283
     15 C         139.0019  140.2059  162.4532 C.ar    1  UNL1        0.1964
     16 C         144.3613  142.9906  163.4624 C.3     1  UNL1        0.0730
     17 N         144.1432  141.6935  164.1835 N.3     1  UNL1       -0.2724
     18 C         144.8708  140.4076  163.9246 C.3     1  UNL1        0.0724
     19 C         144.3364  139.3739  164.8712 C.3     1  UNL1        0.0214
     20 C         143.6186  138.5741  165.9176 C.3     1  UNL1        0.0072
     21 C         143.2786  140.0210  165.7151 C.3     1  UNL1        0.0350
     22 C         143.1591  141.4545  165.2901 C.3     1  UNL1        0.0761
     23 C         142.2235  140.0845  166.7794 C.ar    1  UNL1       -0.0214
     24 C         140.8246  140.4937  166.4251 C.ar    1  UNL1       -0.0037
     25 C         139.7694  140.5572  167.4894 C.ar    1  UNL1        0.0064
     26 C         140.1132  140.2115  168.9080 C.ar    1  UNL1        0.0345
     27 BR        139.0581  140.2751  169.9723 Br      1  UNL1       -0.0490
     28 C         141.5122  139.8023  169.2623 C.ar    1  UNL1        0.0064
     29 C         142.5673  139.7388  168.1980 C.ar    1  UNL1       -0.0037
@<TRIPOS>BOND
     1    10    11    1
     2    11    12   ar
     3    12    13   ar
     4    13    14   ar
     5    14    15   ar
     6    15     4    1
     7     4     5   ar
     8     5     6   ar
     9     6     7   ar
    10     7     3    1
    11     3     2    1
    12     2     1    1
    13     1    16    1
    14    16    17    1
    15    17    18    1
    16    18    19    1
    17    19    20    1
    18    20    21    1
    19    21    23    1
    20    23    24   ar
    21    24    25   ar
    22    25    26   ar
    23    26    27    1
    24    26    28   ar
    25    28    29   ar
    26    21    22    1
    27     7     8   ar
    28     8     9    1
    29    15    11   ar
    30     8     4   ar
    31    22    17    1
    32    21    19    1
    33    29    23   ar
@<TRIPOS>MOLECULE
*****
 29 33 0 0 0
SMALL
GASTEIGER

@<TRIPOS>ATOM
      1 C         139.4694  145.0393  163.2469 C.3     1  UNL1        0.0294
      2 C         140.2656  145.5265  162.0727 C.3     1  UNL1        0.0666
      3 S         141.4155  144.7131  161.5567 S.3     1  UNL1       -0.0756
      4 C         142.0691  141.1861  163.0392 C.ar    1  UNL1        0.2029
      5 N         141.2767  140.8427  161.8128 N.ar    1  UNL1       -0.1250
      6 N         140.9354  142.1220  161.1082 N.ar    1  UNL1       -0.1220
      7 C         141.5169  143.2562  161.8991 C.ar    1  UNL1        0.1933
      8 N         142.2176  142.6777  163.0925 N.ar    1  UNL1       -0.2860
      9 C         142.9399  143.4545  164.1531 C.3     1  UNL1        0.1341
     10 C         145.2271  140.6436  163.6581 C.3     1  UNL1        0.0556
     11 C         144.0684  139.9599  164.3215 C.ar    1  UNL1        0.1001
     12 N         144.1580  138.9068  165.3859 N.ar    1  UNL1       -0.2085
     13 C         142.7618  138.5053  165.7593 C.ar    1  UNL1        0.2849
     14 O         141.8094  139.3102  164.9257 O.2     1  UNL1       -0.4283
     15 C         142.6170  140.2092  164.0371 C.ar    1  UNL1        0.1964
     16 C         138.3690  144.0403  163.0443 C.3     1  UNL1        0.0730
     17 N         138.3842  142.7443  163.7994 N.3     1  UNL1       -0.2724
     18 C         137.6620  141.4885  163.4101 C.3     1  UNL1        0.0724
     19 C         137.9557  140.4446  164.4465 C.3     1  UNL1        0.0214
     20 C         138.4207  139.6276  165.6153 C.3     1  UNL1        0.0072
     21 C         138.8593  141.0552  165.4763 C.3     1  UNL1        0.0350
     22 C         139.1241  142.4765  165.0764 C.3     1  UNL1        0.0761
     23 C         139.6910  141.0859  166.7242 C.ar    1  UNL1       -0.0214
     24 C         139.5878  139.9706  167.7219 C.ar    1  UNL1       -0.0037
     25 C         140.4195  140.0012  168.9699 C.ar    1  UNL1        0.0064
     26 C         141.3544  141.1473  169.2202 C.ar    1  UNL1        0.0345
     27 BR        142.1861  141.1779  170.4681 Br      1  UNL1       -0.0490
     28 C         141.4576  142.2627  168.2224 C.ar    1  UNL1        0.0064
     29 C         140.6259  142.2320  166.9745 C.ar    1  UNL1       -0.0037
@<TRIPOS>BOND
     1    10    11    1
     2    11    12   ar
     3    12    13   ar
     4    13    14   ar
     5    14    15   ar
     6    15     4    1
     7     4     5   ar
     8     5     6   ar
     9     6     7   ar
    10     7     3    1
    11     3     2    1
    12     2     1    1
    13     1    16    1
    14    16    17    1
    15    17    18    1
    16    18    19    1
    17    19    20    1
    18    20    21    1
    19    21    23    1
    20    23    24   ar
    21    24    25   ar
    22    25    26   ar
    23    26    27    1
    24    26    28   ar
    25    28    29   ar
    26    21    22    1
    27     7     8   ar
    28     8     9    1
    29    15    11   ar
    30     8     4   ar
    31    22    17    1
    32    21    19    1
    33    29    23   ar
@<TRIPOS>MOLECULE
*****
 29 33 0 0 0
SMALL
GASTEIGER

@<TRIPOS>ATOM
      1 C         141.2402  145.1360  160.7057 C.3     1  UNL1        0.0294
      2 C         140.2115  144.5321  159.7963 C.3     1  UNL1        0.0666
      3 S         139.9754  143.0508  159.8099 S.3     1  UNL1       -0.0756
      4 C         138.4676  141.0678  162.7863 C.ar    1  UNL1        0.2029
      5 N         137.2906  141.8963  162.3641 N.ar    1  UNL1       -0.1250
      6 N         137.7122  142.7400  161.1978 N.ar    1  UNL1       -0.1220
      7 C         139.1497  142.4329  160.8991 C.ar    1  UNL1        0.1933
      8 N         139.6166  141.3995  161.8809 N.ar    1  UNL1       -0.2860
      9 C         140.9911  140.8025  161.9459 C.3     1  UNL1        0.1341
     10 C         138.9490  137.8517  162.5137 C.3     1  UNL1        0.0556
     11 C         138.7127  138.6027  163.7904 C.ar    1  UNL1        0.1001
     12 N         138.6562  138.0073  165.1660 N.ar    1  UNL1       -0.2085
     13 C         138.4000  139.1176  166.1415 C.ar    1  UNL1        0.2849
     14 O         138.2982  140.3991  165.3689 O.2     1  UNL1       -0.4283
     15 C         138.4914  140.0809  163.9158 C.ar    1  UNL1        0.1964
     16 C         140.9962  145.1872  162.1848 C.3     1  UNL1        0.0730
     17 N         141.9802  144.5630  163.1294 N.3     1  UNL1       -0.2724
     18 C         143.4734  144.6848  163.0544 C.3     1  UNL1        0.0724
     19 C         144.0598  143.9046  164.1935 C.3     1  UNL1        0.0214
     20 C         144.3466  143.0621  165.4009 C.3     1  UNL1        0.0072
     21 C         142.9291  143.3006  164.9723 C.3     1  UNL1        0.0350
     22 C         141.6438  143.7076  164.3147 C.3     1  UNL1        0.0761
     23 C         142.2963  142.4950  166.0681 C.ar    1  UNL1       -0.0214
     24 C         143.0392  141.3427  166.6765 C.ar    1  UNL1       -0.0037
     25 C         142.4065  140.5370  167.7723 C.ar    1  UNL1        0.0064
     26 C         141.0308  140.8838  168.2596 C.ar    1  UNL1        0.0345
     27 BR        140.3981  140.0782  169.3553 Br      1  UNL1       -0.0490
     28 C         140.2879  142.0362  167.6511 C.ar    1  UNL1        0.0064
     29 C         140.9207  142.8418  166.5553 C.ar    1  UNL1       -0.0037
@<TRIPOS>BOND
     1    10    11    1
     2    11    12   ar
     3    12    13   ar
     4    13    14   ar
     5    14    15   ar
     6    15     4    1
     7     4     5   ar
     8     5     6   ar
     9     6     7   ar
    10     7     3    1
    11     3     2    1
    12     2     1    1
    13     1    16    1
    14    16    17    1
    15    17    18    1
    16    18    19    1
    17    19    20    1
    18    20    21    1
    19    21    23    1
    20    23    24   ar
    21    24    25   ar
    22    25    26   ar
    23    26    27    1
    24    26    28   ar
    25    28    29   ar
    26    21    22    1
    27     7     8   ar
    28     8     9    1
    29    15    11   ar
    30     8     4   ar
    31    22    17    1
    32    21    19    1
    33    29    23   ar
@<TRIPOS>MOLECULE
*****
 29 33 0 0 0
SMALL
GASTEIGER

@<TRIPOS>ATOM
      1 C         139.3224  138.0117  161.3355 C.3     1  UNL1        0.0294
      2 C         140.5909  137.6899  162.0686 C.3     1  UNL1        0.0666
      3 S         141.9173  138.0397  161.4617 S.3     1  UNL1       -0.0756
      4 C         143.6341  141.1926  162.9371 C.ar    1  UNL1        0.2029
      5 N         144.6334  140.1292  163.2843 N.ar    1  UNL1       -0.1250
      6 N         144.1119  138.8187  162.7739 N.ar    1  UNL1       -0.1220
      7 C         142.7903  139.0721  162.1112 C.ar    1  UNL1        0.1933
      8 N         142.4951  140.5393  162.2121 N.ar    1  UNL1       -0.2860
      9 C         141.2749  141.2316  161.6811 C.3     1  UNL1        0.1341
     10 C         143.7305  142.4971  165.9268 C.3     1  UNL1        0.0556
     11 C         143.7974  143.2526  164.6326 C.ar    1  UNL1        0.1001
     12 N         143.9203  144.7402  164.4855 N.ar    1  UNL1       -0.2085
     13 C         143.9519  145.0601  163.0204 C.ar    1  UNL1        0.2849
     14 O         143.8486  143.7701  162.2620 O.2     1  UNL1       -0.4283
     15 C         143.7531  142.6530  163.2585 C.ar    1  UNL1        0.1964
     16 C         138.1060  138.4479  162.0971 C.3     1  UNL1        0.0730
     17 N         138.1098  139.7561  162.8310 N.3     1  UNL1       -0.2724
     18 C         137.4772  141.0324  162.3613 C.3     1  UNL1        0.0724
     19 C         137.7233  142.0828  163.4036 C.3     1  UNL1        0.0214
     20 C         138.1190  142.9020  164.5961 C.3     1  UNL1        0.0072
     21 C         138.5081  141.4555  164.5175 C.3     1  UNL1        0.0350
     22 C         138.7469  140.0175  164.1636 C.3     1  UNL1        0.0761
     23 C         139.2265  141.4145  165.8336 C.ar    1  UNL1       -0.0214
     24 C         139.2394  140.1511  166.6420 C.ar    1  UNL1       -0.0037
     25 C         139.9578  140.1101  167.9582 C.ar    1  UNL1        0.0064
     26 C         140.6634  141.3326  168.4658 C.ar    1  UNL1        0.0345
     27 BR        141.3819  141.2916  169.7819 Br      1  UNL1       -0.0490
     28 C         140.6506  142.5961  167.6573 C.ar    1  UNL1        0.0064
     29 C         139.9321  142.6370  166.3412 C.ar    1  UNL1       -0.0037
@<TRIPOS>BOND
     1    10    11    1
     2    11    12   ar
     3    12    13   ar
     4    13    14   ar
     5    14    15   ar
     6    15     4    1
     7     4     5   ar
     8     5     6   ar
     9     6     7   ar
    10     7     3    1
    11     3     2    1
    12     2     1    1
    13     1    16    1
    14    16    17    1
    15    17    18    1
    16    18    19    1
    17    19    20    1
    18    20    21    1
    19    21    23    1
    20    23    24   ar
    21    24    25   ar
    22    25    26   ar
    23    26    27    1
    24    26    28   ar
    25    28    29   ar
    26    21    22    1
    27     7     8   ar
    28     8     9    1
    29    15    11   ar
    30     8     4   ar
    31    22    17    1
    32    21    19    1
    33    29    23   ar
