@<TRIPOS>MOLECULE
*****
 33 37 0 0 0
SMALL
GASTEIGER

@<TRIPOS>ATOM
      1 C         139.4531  139.2763  160.1851 C.3     1  UNL1        0.2052
      2 C         139.7660  138.1807  159.2094 C.3     1  UNL1        0.1391
      3 N         141.1470  138.7372  159.0273 N.am    1  UNL1       -0.2647
      4 C         142.3446  138.3561  158.2087 C.2     1  UNL1        0.3047
      5 O         143.5977  139.1772  158.2853 O.2     1  UNL1       -0.2647
      6 C         140.8341  139.8328  160.0030 C.3     1  UNL1        0.1391
      7 C         142.2894  137.1538  157.3134 C.ar    1  UNL1        0.3043
      8 N         141.3710  136.9685  156.1419 N.ar    1  UNL1       -0.1021
      9 N         141.6569  135.6259  155.5369 N.ar    1  UNL1       -0.1068
     10 C         142.7519  134.9817  156.3345 C.ar    1  UNL1        0.2501
     11 O         143.1427  135.9261  157.4324 O.2     1  UNL1       -0.4122
     12 C         143.3507  133.6305  156.0789 C.ar    1  UNL1        0.0551
     13 C         144.3022  133.0318  157.0720 C.ar    1  UNL1        0.0047
     14 C         144.9011  131.6805  156.8165 C.ar    1  UNL1        0.0002
     15 C         144.5485  130.9278  155.5678 C.ar    1  UNL1        0.0000
     16 C         143.5970  131.5264  154.5747 C.ar    1  UNL1        0.0002
     17 C         142.9981  132.8777  154.8302 C.ar    1  UNL1        0.0047
     18 O         138.2555  139.6574  161.0038 O.3     1  UNL1       -0.4756
     19 C         138.4297  139.4158  165.4940 C.ar    1  UNL1        0.0216
     20 C         138.0463  140.7032  164.8264 C.ar    1  UNL1        0.0024
     21 C         137.9882  140.7837  163.3297 C.ar    1  UNL1        0.0368
     22 C         138.3136  139.5769  162.5005 C.ar    1  UNL1        0.1408
     23 C         138.6970  138.2895  163.1680 C.ar    1  UNL1        0.0662
     24 C         138.7551  138.2089  164.6648 C.ar    1  UNL1        0.1405
     25 F         139.1385  136.9215  165.3322 F       1  UNL1       -0.2044
     26 C         138.4878  139.3353  166.9906 C.3     1  UNL1        0.1015
     27 C         143.2962  141.4056  169.9221 C.3     1  UNL1        0.0897
     28 N         142.0941  140.8880  169.1892 N.3     1  UNL1       -0.2691
     29 C         140.7631  140.8299  169.8784 C.3     1  UNL1        0.0897
     30 C         139.5610  140.3124  169.1455 C.3     1  UNL1        0.0899
     31 N         139.6899  139.8529  167.7235 N.3     1  UNL1       -0.2665
     32 C         141.0209  139.9109  167.0343 C.3     1  UNL1        0.0899
     33 C         142.2230  140.4285  167.7672 C.3     1  UNL1        0.0897
@<TRIPOS>BOND
     1    27    28    1
     2    28    29    1
     3    29    30    1
     4    30    31    1
     5    31    26    1
     6    26    19    1
     7    19    20   ar
     8    20    21   ar
     9    21    22   ar
    10    22    18    1
    11    18     1    1
    12     1     2    1
    13     2     3    1
    14     3     4   am
    15     4     5    2
    16     4     7    1
    17     7     8   ar
    18     8     9   ar
    19     9    10   ar
    20    10    12    1
    21    12    13   ar
    22    13    14   ar
    23    14    15   ar
    24    15    16   ar
    25    16    17   ar
    26    10    11   ar
    27     3     6    1
    28    22    23   ar
    29    23    24   ar
    30    24    25    1
    31    31    32    1
    32    32    33    1
    33    33    28    1
    34    24    19   ar
    35     6     1    1
    36    11     7   ar
    37    17    12   ar
@<TRIPOS>MOLECULE
*****
 33 37 0 0 0
SMALL
GASTEIGER

@<TRIPOS>ATOM
      1 C         139.1433  139.4272  159.5135 C.3     1  UNL1        0.2052
      2 C         140.0371  138.4097  158.8687 C.3     1  UNL1        0.1391
      3 N         140.8253  139.5109  158.2236 N.am    1  UNL1       -0.2647
      4 C         142.0146  139.5701  157.3114 C.2     1  UNL1        0.3047
      5 O         142.5446  140.8971  156.8552 O.2     1  UNL1       -0.2647
      6 C         139.9315  140.5284  158.8684 C.3     1  UNL1        0.1391
      7 C         142.6739  138.3022  156.8555 C.ar    1  UNL1        0.3043
      8 N         143.9838  138.2007  156.1318 N.ar    1  UNL1       -0.1021
      9 N         144.2586  136.7490  155.8723 N.ar    1  UNL1       -0.1068
     10 C         143.1185  135.9535  156.4357 C.ar    1  UNL1        0.2501
     11 O         142.1391  136.9135  157.0434 O.2     1  UNL1       -0.4122
     12 C         142.9818  134.4603  156.3980 C.ar    1  UNL1        0.0551
     13 C         141.8872  133.8274  155.5910 C.ar    1  UNL1        0.0047
     14 C         141.7505  132.3342  155.5532 C.ar    1  UNL1        0.0002
     15 C         142.7084  131.4737  156.3225 C.ar    1  UNL1        0.0000
     16 C         143.8031  132.1064  157.1295 C.ar    1  UNL1        0.0002
     17 C         143.9398  133.5997  157.1673 C.ar    1  UNL1        0.0047
     18 O         137.9540  139.3681  160.4256 O.3     1  UNL1       -0.4756
     19 C         138.5432  139.2196  164.8845 C.ar    1  UNL1        0.0216
     20 C         138.8337  138.0083  164.0488 C.ar    1  UNL1        0.0024
     21 C         138.6373  138.0578  162.5626 C.ar    1  UNL1        0.0368
     22 C         138.1504  139.3186  161.9120 C.ar    1  UNL1        0.1408
     23 C         137.8599  140.5299  162.7476 C.ar    1  UNL1        0.0662
     24 C         138.0563  140.4804  164.2339 C.ar    1  UNL1        0.1405
     25 F         137.7658  141.6917  165.0695 F       1  UNL1       -0.2044
     26 C         138.7396  139.1701  166.3707 C.3     1  UNL1        0.1015
     27 C         143.2332  142.2323  168.9067 C.3     1  UNL1        0.0897
     28 N         142.1098  141.4667  168.2727 N.3     1  UNL1       -0.2691
     29 C         140.9246  141.0555  169.0949 C.3     1  UNL1        0.0897
     30 C         139.8012  140.2899  168.4609 C.3     1  UNL1        0.0899
     31 N         139.8630  139.9356  167.0047 N.3     1  UNL1       -0.2665
     32 C         141.0482  140.3469  166.1825 C.3     1  UNL1        0.0899
     33 C         142.1716  141.1125  166.8165 C.3     1  UNL1        0.0897
@<TRIPOS>BOND
     1    27    28    1
     2    28    29    1
     3    29    30    1
     4    30    31    1
     5    31    26    1
     6    26    19    1
     7    19    20   ar
     8    20    21   ar
     9    21    22   ar
    10    22    18    1
    11    18     1    1
    12     1     2    1
    13     2     3    1
    14     3     4   am
    15     4     5    2
    16     4     7    1
    17     7     8   ar
    18     8     9   ar
    19     9    10   ar
    20    10    12    1
    21    12    13   ar
    22    13    14   ar
    23    14    15   ar
    24    15    16   ar
    25    16    17   ar
    26    10    11   ar
    27     3     6    1
    28    22    23   ar
    29    23    24   ar
    30    24    25    1
    31    31    32    1
    32    32    33    1
    33    33    28    1
    34    24    19   ar
    35     6     1    1
    36    11     7   ar
    37    17    12   ar
@<TRIPOS>MOLECULE
*****
 33 37 0 0 0
SMALL
GASTEIGER

@<TRIPOS>ATOM
      1 C         140.7869  141.0248  160.5209 C.3     1  UNL1        0.2052
      2 C         140.8732  140.8658  162.0099 C.3     1  UNL1        0.1391
      3 N         139.4009  141.1297  162.1234 N.am    1  UNL1       -0.2647
      4 C         138.4209  141.2040  163.2565 C.2     1  UNL1        0.3047
      5 O         136.9765  141.5001  162.9807 O.2     1  UNL1       -0.2647
      6 C         139.3147  141.2887  160.6343 C.3     1  UNL1        0.1391
      7 C         138.8852  140.9821  164.6654 C.ar    1  UNL1        0.3043
      8 N         138.5094  139.8274  165.5460 N.ar    1  UNL1       -0.1021
      9 N         139.1988  140.0077  166.8660 N.ar    1  UNL1       -0.1068
     10 C         140.0007  141.2737  166.8011 C.ar    1  UNL1        0.2501
     11 O         139.8068  141.8759  165.4410 O.2     1  UNL1       -0.4122
     12 C         140.8476  141.8383  167.9028 C.ar    1  UNL1        0.0551
     13 C         140.3307  142.9694  168.7417 C.ar    1  UNL1        0.0047
     14 C         141.1776  143.5340  169.8434 C.ar    1  UNL1        0.0002
     15 C         142.5414  142.9677  170.1064 C.ar    1  UNL1        0.0000
     16 C         143.0583  141.8366  169.2676 C.ar    1  UNL1        0.0002
     17 C         142.2115  141.2719  168.1659 C.ar    1  UNL1        0.0047
     18 O         141.7669  140.9505  159.3877 O.3     1  UNL1       -0.4756
     19 C         141.5709  137.5358  156.4634 C.ar    1  UNL1        0.0216
     20 C         140.3940  137.8387  157.3428 C.ar    1  UNL1        0.0024
     21 C         140.4594  138.9769  158.3176 C.ar    1  UNL1        0.0368
     22 C         141.7016  139.8123  158.4129 C.ar    1  UNL1        0.1408
     23 C         142.8784  139.5094  157.5335 C.ar    1  UNL1        0.0662
     24 C         142.8131  138.3712  156.5587 C.ar    1  UNL1        0.1405
     25 F         143.9899  138.0683  155.6794 F       1  UNL1       -0.2044
     26 C         141.5055  136.3976  155.4887 C.3     1  UNL1        0.1015
     27 C         143.2484  130.9070  157.1665 C.3     1  UNL1        0.0897
     28 N         142.8127  132.2796  156.7471 N.3     1  UNL1       -0.2691
     29 C         143.4089  133.4892  157.4039 C.3     1  UNL1        0.0897
     30 C         142.9732  134.8618  156.9844 C.3     1  UNL1        0.0899
     31 N         141.9412  135.0249  155.9081 N.3     1  UNL1       -0.2665
     32 C         141.3450  133.8154  155.2513 C.3     1  UNL1        0.0899
     33 C         141.7807  132.4427  155.6708 C.3     1  UNL1        0.0897
@<TRIPOS>BOND
     1    27    28    1
     2    28    29    1
     3    29    30    1
     4    30    31    1
     5    31    26    1
     6    26    19    1
     7    19    20   ar
     8    20    21   ar
     9    21    22   ar
    10    22    18    1
    11    18     1    1
    12     1     2    1
    13     2     3    1
    14     3     4   am
    15     4     5    2
    16     4     7    1
    17     7     8   ar
    18     8     9   ar
    19     9    10   ar
    20    10    12    1
    21    12    13   ar
    22    13    14   ar
    23    14    15   ar
    24    15    16   ar
    25    16    17   ar
    26    10    11   ar
    27     3     6    1
    28    22    23   ar
    29    23    24   ar
    30    24    25    1
    31    31    32    1
    32    32    33    1
    33    33    28    1
    34    24    19   ar
    35     6     1    1
    36    11     7   ar
    37    17    12   ar
@<TRIPOS>MOLECULE
*****
 33 37 0 0 0
SMALL
GASTEIGER

@<TRIPOS>ATOM
      1 C         139.5612  139.0231  158.2365 C.3     1  UNL1        0.2052
      2 C         139.8187  137.7725  157.4493 C.3     1  UNL1        0.1391
      3 N         141.2526  138.1771  157.2756 N.am    1  UNL1       -0.2647
      4 C         142.4486  137.5789  156.5961 C.2     1  UNL1        0.3047
      5 O         143.7671  138.2935  156.6321 O.2     1  UNL1       -0.2647
      6 C         140.9951  139.4277  158.0628 C.3     1  UNL1        0.1391
      7 C         142.3263  136.2662  155.8807 C.ar    1  UNL1        0.3043
      8 N         141.2586  135.8960  154.8942 N.ar    1  UNL1       -0.1021
      9 N         141.5226  134.4942  154.4300 N.ar    1  UNL1       -0.1068
     10 C         142.7533  133.9982  155.1296 C.ar    1  UNL1        0.2501
     11 O         143.2500  135.0934  156.0262 O.2     1  UNL1       -0.4122
     12 C         143.3776  132.6448  154.9620 C.ar    1  UNL1        0.0551
     13 C         143.0702  131.8223  153.7458 C.ar    1  UNL1        0.0047
     14 C         143.6945  130.4688  153.5781 C.ar    1  UNL1        0.0002
     15 C         144.6263  129.9376  154.6267 C.ar    1  UNL1        0.0000
     16 C         144.9339  130.7600  155.8429 C.ar    1  UNL1        0.0002
     17 C         144.3096  132.1135  156.0106 C.ar    1  UNL1        0.0047
     18 O         138.3651  139.6213  158.9159 O.3     1  UNL1       -0.4756
     19 C         138.2282  139.8896  163.4059 C.ar    1  UNL1        0.0216
     20 C         137.9404  141.1035  162.5728 C.ar    1  UNL1        0.0024
     21 C         137.9861  141.0140  161.0762 C.ar    1  UNL1        0.0368
     22 C         138.3195  139.7107  160.4126 C.ar    1  UNL1        0.1408
     23 C         138.6072  138.4970  161.2456 C.ar    1  UNL1        0.0662
     24 C         138.5616  138.5864  162.7423 C.ar    1  UNL1        0.1405
     25 F         138.8493  137.3726  163.5753 F       1  UNL1       -0.2044
     26 C         138.1825  139.9791  164.9025 C.3     1  UNL1        0.1015
     27 C         142.9033  142.1183  167.9255 C.3     1  UNL1        0.0897
     28 N         141.7231  141.5835  167.1697 N.3     1  UNL1       -0.2691
     29 C         141.5257  140.1025  167.0374 C.3     1  UNL1        0.0897
     30 C         140.3455  139.5677  166.2817 C.3     1  UNL1        0.0899
     31 N         139.3627  140.5139  165.6582 N.3     1  UNL1       -0.2665
     32 C         139.5601  141.9949  165.7906 C.3     1  UNL1        0.0899
     33 C         140.7403  142.5297  166.5463 C.3     1  UNL1        0.0897
@<TRIPOS>BOND
     1    27    28    1
     2    28    29    1
     3    29    30    1
     4    30    31    1
     5    31    26    1
     6    26    19    1
     7    19    20   ar
     8    20    21   ar
     9    21    22   ar
    10    22    18    1
    11    18     1    1
    12     1     2    1
    13     2     3    1
    14     3     4   am
    15     4     5    2
    16     4     7    1
    17     7     8   ar
    18     8     9   ar
    19     9    10   ar
    20    10    12    1
    21    12    13   ar
    22    13    14   ar
    23    14    15   ar
    24    15    16   ar
    25    16    17   ar
    26    10    11   ar
    27     3     6    1
    28    22    23   ar
    29    23    24   ar
    30    24    25    1
    31    31    32    1
    32    32    33    1
    33    33    28    1
    34    24    19   ar
    35     6     1    1
    36    11     7   ar
    37    17    12   ar
@<TRIPOS>MOLECULE
*****
 33 37 0 0 0
SMALL
GASTEIGER

@<TRIPOS>ATOM
      1 C         140.5769  139.2694  159.5827 C.3     1  UNL1        0.2052
      2 C         140.9777  139.7905  160.9310 C.3     1  UNL1        0.1391
      3 N         140.0385  138.8209  161.5850 N.am    1  UNL1       -0.2647
      4 C         139.6577  138.5038  163.0007 C.2     1  UNL1        0.3047
      5 O         138.6467  137.4324  163.2835 O.2     1  UNL1       -0.2647
      6 C         139.6376  138.2998  160.2367 C.3     1  UNL1        0.1391
      7 C         140.2880  139.2581  164.1338 C.ar    1  UNL1        0.3043
      8 N         141.7293  139.6626  164.2299 N.ar    1  UNL1       -0.1021
      9 N         141.9197  140.3948  165.5252 N.ar    1  UNL1       -0.1068
     10 C         140.5961  140.4428  166.2295 C.ar    1  UNL1        0.2501
     11 O         139.5877  139.7403  165.3695 O.2     1  UNL1       -0.4122
     12 C         140.3282  141.0813  167.5600 C.ar    1  UNL1        0.0551
     13 C         139.6371  140.3027  168.6399 C.ar    1  UNL1        0.0047
     14 C         139.3690  140.9411  169.9706 C.ar    1  UNL1        0.0002
     15 C         139.7921  142.3582  170.2213 C.ar    1  UNL1        0.0000
     16 C         140.4832  143.1368  169.1414 C.ar    1  UNL1        0.0002
     17 C         140.7513  142.4984  167.8108 C.ar    1  UNL1        0.0047
     18 O         140.9576  139.5865  158.1669 O.3     1  UNL1       -0.4756
     19 C         142.1540  136.2760  155.3633 C.ar    1  UNL1        0.0216
     20 C         140.7039  136.5211  155.6591 C.ar    1  UNL1        0.0024
     21 C         140.3052  137.6246  156.5936 C.ar    1  UNL1        0.0368
     22 C         141.3564  138.4830  157.2324 C.ar    1  UNL1        0.1408
     23 C         142.8064  138.2379  156.9367 C.ar    1  UNL1        0.0662
     24 C         143.2052  137.1344  156.0021 C.ar    1  UNL1        0.1405
     25 F         144.6552  136.8894  155.7064 F       1  UNL1       -0.2044
     26 C         142.5527  135.1726  154.4288 C.3     1  UNL1        0.1015
     27 C         143.0696  129.5537  156.4687 C.3     1  UNL1        0.0897
     28 N         142.9403  130.9584  155.9587 N.3     1  UNL1       -0.2691
     29 C         142.8495  131.2154  154.4837 C.3     1  UNL1        0.0897
     30 C         142.7202  132.6202  153.9738 C.3     1  UNL1        0.0899
     31 N         142.6819  133.7679  154.9388 N.3     1  UNL1       -0.2665
     32 C         142.7728  133.5108  156.4138 C.3     1  UNL1        0.0899
     33 C         142.9020  132.1061  156.9237 C.3     1  UNL1        0.0897
@<TRIPOS>BOND
     1    27    28    1
     2    28    29    1
     3    29    30    1
     4    30    31    1
     5    31    26    1
     6    26    19    1
     7    19    20   ar
     8    20    21   ar
     9    21    22   ar
    10    22    18    1
    11    18     1    1
    12     1     2    1
    13     2     3    1
    14     3     4   am
    15     4     5    2
    16     4     7    1
    17     7     8   ar
    18     8     9   ar
    19     9    10   ar
    20    10    12    1
    21    12    13   ar
    22    13    14   ar
    23    14    15   ar
    24    15    16   ar
    25    16    17   ar
    26    10    11   ar
    27     3     6    1
    28    22    23   ar
    29    23    24   ar
    30    24    25    1
    31    31    32    1
    32    32    33    1
    33    33    28    1
    34    24    19   ar
    35     6     1    1
    36    11     7   ar
    37    17    12   ar
@<TRIPOS>MOLECULE
*****
 33 37 0 0 0
SMALL
GASTEIGER

@<TRIPOS>ATOM
      1 C         139.6996  139.4479  160.1923 C.3     1  UNL1        0.2052
      2 C         139.9360  140.8595  159.7435 C.3     1  UNL1        0.1391
      3 N         141.2179  140.4369  159.0892 N.am    1  UNL1       -0.2647
      4 C         142.2914  141.1362  158.3092 C.2     1  UNL1        0.3047
      5 O         143.4685  140.3626  157.7932 O.2     1  UNL1       -0.2647
      6 C         140.9815  139.0252  159.5379 C.3     1  UNL1        0.1391
      7 C         142.1879  142.6091  158.0450 C.ar    1  UNL1        0.3043
      8 N         142.9754  143.6854  158.7317 N.ar    1  UNL1       -0.1021
      9 N         142.5530  145.0058  158.1589 N.ar    1  UNL1       -0.1068
     10 C         141.5045  144.7456  157.1183 C.ar    1  UNL1        0.2501
     11 O         141.2789  143.2643  157.0479 O.2     1  UNL1       -0.4122
     12 C         140.8045  145.7842  156.2930 C.ar    1  UNL1        0.0551
     13 C         139.7144  146.6159  156.9012 C.ar    1  UNL1        0.0047
     14 C         139.0143  147.6546  156.0759 C.ar    1  UNL1        0.0002
     15 C         139.4044  147.8616  154.6424 C.ar    1  UNL1        0.0000
     16 C         140.4946  147.0300  154.0342 C.ar    1  UNL1        0.0002
     17 C         141.1946  145.9913  154.8594 C.ar    1  UNL1        0.0047
     18 O         138.6261  138.7486  160.9723 O.3     1  UNL1       -0.4756
     19 C         138.4440  139.1927  165.4467 C.ar    1  UNL1        0.0216
     20 C         138.1635  140.3725  164.5638 C.ar    1  UNL1        0.0024
     21 C         138.2242  140.2244  163.0724 C.ar    1  UNL1        0.0368
     22 C         138.5654  138.8966  162.4638 C.ar    1  UNL1        0.1408
     23 C         138.8459  137.7168  163.3466 C.ar    1  UNL1        0.0662
     24 C         138.7852  137.8648  164.8381 C.ar    1  UNL1        0.1405
     25 F         139.0656  136.6850  165.7209 F       1  UNL1       -0.2044
     26 C         138.3833  139.3407  166.9381 C.3     1  UNL1        0.1015
     27 C         143.1835  141.3030  169.9560 C.3     1  UNL1        0.0897
     28 N         141.9834  140.8124  169.2015 N.3     1  UNL1       -0.2691
     29 C         142.1291  140.3414  167.7849 C.3     1  UNL1        0.0897
     30 C         140.9291  139.8509  167.0304 C.3     1  UNL1        0.0899
     31 N         139.5833  139.8313  167.6926 N.3     1  UNL1       -0.2665
     32 C         139.4376  140.3023  169.1092 C.3     1  UNL1        0.0899
     33 C         140.6376  140.7928  169.8637 C.3     1  UNL1        0.0897
@<TRIPOS>BOND
     1    27    28    1
     2    28    29    1
     3    29    30    1
     4    30    31    1
     5    31    26    1
     6    26    19    1
     7    19    20   ar
     8    20    21   ar
     9    21    22   ar
    10    22    18    1
    11    18     1    1
    12     1     2    1
    13     2     3    1
    14     3     4   am
    15     4     5    2
    16     4     7    1
    17     7     8   ar
    18     8     9   ar
    19     9    10   ar
    20    10    12    1
    21    12    13   ar
    22    13    14   ar
    23    14    15   ar
    24    15    16   ar
    25    16    17   ar
    26    10    11   ar
    27     3     6    1
    28    22    23   ar
    29    23    24   ar
    30    24    25    1
    31    31    32    1
    32    32    33    1
    33    33    28    1
    34    24    19   ar
    35     6     1    1
    36    11     7   ar
    37    17    12   ar
@<TRIPOS>MOLECULE
*****
 33 37 0 0 0
SMALL
GASTEIGER

@<TRIPOS>ATOM
      1 C         138.6467  141.4822  159.0418 C.3     1  UNL1        0.2052
      2 C         138.2767  142.6499  158.1760 C.3     1  UNL1        0.1391
      3 N         139.7284  142.9932  158.0186 N.am    1  UNL1       -0.2647
      4 C         140.4933  144.0615  157.2951 C.2     1  UNL1        0.3047
      5 O         141.9913  144.0909  157.3672 O.2     1  UNL1       -0.2647
      6 C         140.0984  141.8255  158.8844 C.3     1  UNL1        0.1391
      7 C         139.7602  145.1006  156.4996 C.ar    1  UNL1        0.3043
      8 N         138.5356  144.8700  155.6646 N.ar    1  UNL1       -0.1021
      9 N         138.1416  146.1797  155.0483 N.ar    1  UNL1       -0.1068
     10 C         139.1227  147.2195  155.5024 C.ar    1  UNL1        0.2501
     11 O         140.1231  146.5526  156.3994 O.2     1  UNL1       -0.4122
     12 C         139.1063  148.6713  155.1257 C.ar    1  UNL1        0.0551
     13 C         139.6861  149.1125  153.8146 C.ar    1  UNL1        0.0047
     14 C         139.6697  150.5643  153.4378 C.ar    1  UNL1        0.0002
     15 C         139.0734  151.5750  154.3722 C.ar    1  UNL1        0.0000
     16 C         138.4936  151.1338  155.6833 C.ar    1  UNL1        0.0002
     17 C         138.5100  149.6820  156.0601 C.ar    1  UNL1        0.0047
     18 O         137.8818  140.4139  159.7653 O.3     1  UNL1       -0.4756
     19 C         138.1671  140.0836  164.2442 C.ar    1  UNL1        0.0216
     20 C         137.7506  141.3789  163.6126 C.ar    1  UNL1        0.0024
     21 C         137.6555  141.4889  162.1197 C.ar    1  UNL1        0.0368
     22 C         137.9769  140.3038  161.2583 C.ar    1  UNL1        0.1408
     23 C         138.3935  139.0085  161.8898 C.ar    1  UNL1        0.0662
     24 C         138.4886  138.8984  163.3828 C.ar    1  UNL1        0.1405
     25 F         138.9051  137.6032  164.0143 F       1  UNL1       -0.2044
     26 C         138.2622  139.9736  165.7371 C.3     1  UNL1        0.1015
     27 C         142.9889  142.2853  168.6207 C.3     1  UNL1        0.0897
     28 N         141.8072  141.7074  167.8998 N.3     1  UNL1       -0.2691
     29 C         141.3232  140.3285  168.2379 C.3     1  UNL1        0.0897
     30 C         140.1416  139.7506  167.5171 C.3     1  UNL1        0.0899
     31 N         139.4439  140.5515  166.4580 N.3     1  UNL1       -0.2665
     32 C         139.9279  141.9304  166.1198 C.3     1  UNL1        0.0899
     33 C         141.1096  142.5083  166.8407 C.3     1  UNL1        0.0897
@<TRIPOS>BOND
     1    27    28    1
     2    28    29    1
     3    29    30    1
     4    30    31    1
     5    31    26    1
     6    26    19    1
     7    19    20   ar
     8    20    21   ar
     9    21    22   ar
    10    22    18    1
    11    18     1    1
    12     1     2    1
    13     2     3    1
    14     3     4   am
    15     4     5    2
    16     4     7    1
    17     7     8   ar
    18     8     9   ar
    19     9    10   ar
    20    10    12    1
    21    12    13   ar
    22    13    14   ar
    23    14    15   ar
    24    15    16   ar
    25    16    17   ar
    26    10    11   ar
    27     3     6    1
    28    22    23   ar
    29    23    24   ar
    30    24    25    1
    31    31    32    1
    32    32    33    1
    33    33    28    1
    34    24    19   ar
    35     6     1    1
    36    11     7   ar
    37    17    12   ar
@<TRIPOS>MOLECULE
*****
 33 37 0 0 0
SMALL
GASTEIGER

@<TRIPOS>ATOM
      1 C         138.3200  140.6024  158.9673 C.3     1  UNL1        0.2052
      2 C         138.4096  140.1428  160.3923 C.3     1  UNL1        0.1391
      3 N         138.5576  141.5661  160.8421 N.am    1  UNL1       -0.2647
      4 C         138.7256  142.2476  162.1677 C.2     1  UNL1        0.3047
      5 O         138.8454  143.7414  162.2333 O.2     1  UNL1       -0.2647
      6 C         138.4681  142.0257  159.4170 C.3     1  UNL1        0.1391
      7 C         138.7737  141.4353  163.4278 C.ar    1  UNL1        0.3043
      8 N         137.7253  140.4695  163.8948 N.ar    1  UNL1       -0.1021
      9 N         138.1824  139.8835  165.1977 N.ar    1  UNL1       -0.1068
     10 C         139.5133  140.4872  165.5360 C.ar    1  UNL1        0.2501
     11 O         139.8787  141.4462  164.4420 O.2     1  UNL1       -0.4122
     12 C         140.3345  140.1848  166.7542 C.ar    1  UNL1        0.0551
     13 C         139.7099  140.2552  168.1162 C.ar    1  UNL1        0.0047
     14 C         140.5311  139.9529  169.3345 C.ar    1  UNL1        0.0002
     15 C         141.9768  139.5800  169.1908 C.ar    1  UNL1        0.0000
     16 C         142.6015  139.5095  167.8289 C.ar    1  UNL1        0.0002
     17 C         141.7804  139.8119  166.6106 C.ar    1  UNL1        0.0047
     18 O         138.1521  139.9209  157.6416 O.3     1  UNL1       -0.4756
     19 C         141.4595  137.3499  155.9982 C.ar    1  UNL1        0.0216
     20 C         140.3105  137.7465  155.1192 C.ar    1  UNL1        0.0024
     21 C         139.2081  138.6034  155.6670 C.ar    1  UNL1        0.0368
     22 C         139.2546  139.0639  157.0938 C.ar    1  UNL1        0.1408
     23 C         140.4035  138.6674  157.9728 C.ar    1  UNL1        0.0662
     24 C         141.5061  137.8104  157.4250 C.ar    1  UNL1        0.1405
     25 F         142.6550  137.4139  158.3040 F       1  UNL1       -0.2044
     26 C         142.5620  136.4929  155.4503 C.3     1  UNL1        0.1015
     27 C         143.0071  130.7471  157.1200 C.3     1  UNL1        0.0897
     28 N         142.8958  132.1836  156.7026 N.3     1  UNL1       -0.2691
     29 C         141.8443  132.5989  155.7168 C.3     1  UNL1        0.0897
     30 C         141.7330  134.0353  155.2994 C.3     1  UNL1        0.0899
     31 N         142.6733  135.0565  155.8677 N.3     1  UNL1       -0.2665
     32 C         143.7248  134.6412  156.8535 C.3     1  UNL1        0.0899
     33 C         143.8361  133.2048  157.2709 C.3     1  UNL1        0.0897
@<TRIPOS>BOND
     1    27    28    1
     2    28    29    1
     3    29    30    1
     4    30    31    1
     5    31    26    1
     6    26    19    1
     7    19    20   ar
     8    20    21   ar
     9    21    22   ar
    10    22    18    1
    11    18     1    1
    12     1     2    1
    13     2     3    1
    14     3     4   am
    15     4     5    2
    16     4     7    1
    17     7     8   ar
    18     8     9   ar
    19     9    10   ar
    20    10    12    1
    21    12    13   ar
    22    13    14   ar
    23    14    15   ar
    24    15    16   ar
    25    16    17   ar
    26    10    11   ar
    27     3     6    1
    28    22    23   ar
    29    23    24   ar
    30    24    25    1
    31    31    32    1
    32    32    33    1
    33    33    28    1
    34    24    19   ar
    35     6     1    1
    36    11     7   ar
    37    17    12   ar
@<TRIPOS>MOLECULE
*****
 33 37 0 0 0
SMALL
GASTEIGER

@<TRIPOS>ATOM
      1 C         142.1653  139.7904  159.5423 C.3     1  UNL1        0.2052
      2 C         142.8414  138.7611  158.6859 C.3     1  UNL1        0.1391
      3 N         141.5172  138.3895  158.0871 N.am    1  UNL1       -0.2647
      4 C         141.0590  137.3990  157.0582 C.2     1  UNL1        0.3047
      5 O         139.6049  137.3065  156.7014 O.2     1  UNL1       -0.2647
      6 C         140.8411  139.4189  158.9435 C.3     1  UNL1        0.1391
      7 C         142.0547  136.5008  156.3860 C.ar    1  UNL1        0.3043
      8 N         143.1945  136.9427  155.5167 N.ar    1  UNL1       -0.1021
      9 N         143.9297  135.7181  155.0586 N.ar    1  UNL1       -0.1068
     10 C         143.2442  134.5195  155.6446 C.ar    1  UNL1        0.2501
     11 O         142.0854  135.0033  156.4650 O.2     1  UNL1       -0.4122
     12 C         143.6469  133.0885  155.4452 C.ar    1  UNL1        0.0551
     13 C         143.1109  132.3142  154.2777 C.ar    1  UNL1        0.0047
     14 C         143.5135  130.8831  154.0782 C.ar    1  UNL1        0.0002
     15 C         144.4522  130.2262  155.0463 C.ar    1  UNL1        0.0000
     16 C         144.9883  131.0004  156.2139 C.ar    1  UNL1        0.0002
     17 C         144.5857  132.4315  156.4134 C.ar    1  UNL1        0.0047
     18 O         142.6235  140.7810  160.5712 O.3     1  UNL1       -0.4756
     19 C         143.0154  139.5340  164.8773 C.ar    1  UNL1        0.0216
     20 C         143.5409  140.8664  164.4315 C.ar    1  UNL1        0.0024
     21 C         143.4103  141.2820  162.9961 C.ar    1  UNL1        0.0368
     22 C         142.7541  140.3653  162.0066 C.ar    1  UNL1        0.1408
     23 C         142.2287  139.0330  162.4524 C.ar    1  UNL1        0.0662
     24 C         142.3593  138.6173  163.8878 C.ar    1  UNL1        0.1405
     25 F         141.8338  137.2850  164.3336 F       1  UNL1       -0.2044
     26 C         143.1460  139.1184  166.3126 C.3     1  UNL1        0.1015
     27 C         138.7393  140.3307  170.1999 C.3     1  UNL1        0.0897
     28 N         139.8410  140.0276  169.2281 N.3     1  UNL1       -0.2691
     29 C         139.5569  140.0050  167.7555 C.3     1  UNL1        0.0897
     30 C         140.6586  139.7019  166.7836 C.3     1  UNL1        0.0899
     31 N         142.0444  139.4215  167.2844 N.3     1  UNL1       -0.2665
     32 C         142.3285  139.4440  168.7571 C.3     1  UNL1        0.0899
     33 C         141.2268  139.7471  169.7289 C.3     1  UNL1        0.0897
@<TRIPOS>BOND
     1    27    28    1
     2    28    29    1
     3    29    30    1
     4    30    31    1
     5    31    26    1
     6    26    19    1
     7    19    20   ar
     8    20    21   ar
     9    21    22   ar
    10    22    18    1
    11    18     1    1
    12     1     2    1
    13     2     3    1
    14     3     4   am
    15     4     5    2
    16     4     7    1
    17     7     8   ar
    18     8     9   ar
    19     9    10   ar
    20    10    12    1
    21    12    13   ar
    22    13    14   ar
    23    14    15   ar
    24    15    16   ar
    25    16    17   ar
    26    10    11   ar
    27     3     6    1
    28    22    23   ar
    29    23    24   ar
    30    24    25    1
    31    31    32    1
    32    32    33    1
    33    33    28    1
    34    24    19   ar
    35     6     1    1
    36    11     7   ar
    37    17    12   ar
