@<TRIPOS>MOLECULE
*****
 42 47 0 0 0
SMALL
GASTEIGER

@<TRIPOS>ATOM
      1 C         138.9767  140.3657  161.9771 C.ar    1  UNL1       -0.0061
      2 C         138.6235  141.3739  163.0301 C.ar    1  UNL1       -0.0028
      3 C         138.4439  140.9392  164.4545 C.ar    1  UNL1        0.0030
      4 C         138.6176  139.4963  164.8258 C.ar    1  UNL1        0.0420
      5 C         138.9708  138.4881  163.7728 C.ar    1  UNL1        0.0030
      6 C         139.1504  138.9228  162.3485 C.ar    1  UNL1       -0.0028
      7 C         138.4380  139.0616  166.2502 C.2     1  UNL1        0.2297
      8 O         137.3127  138.1401  166.6168 O.2     1  UNL1       -0.2833
      9 C         139.3838  139.5484  167.3078 C.ar    1  UNL1        0.1873
     10 N         139.0414  139.8082  168.7449 N.ar    1  UNL1       -0.2235
     11 C         140.2840  140.2811  169.4393 C.ar    1  UNL1        0.0991
     12 C         140.5478  140.6864  170.8592 C.ar    1  UNL1        0.0206
     13 C         141.9221  141.1242  171.2712 C.ar    1  UNL1        0.0016
     14 C         143.0325  141.1567  170.2632 C.ar    1  UNL1        0.0016
     15 C         142.7687  140.7515  168.8433 C.ar    1  UNL1        0.0191
     16 C         141.3944  140.3137  168.4314 C.ar    1  UNL1        0.0830
     17 N         140.8380  139.8608  167.1141 N.ar    1  UNL1       -0.2877
     18 C         141.6019  139.7413  165.8286 C.ar    1  UNL1        0.0655
     19 C         141.9016  140.9669  165.0176 C.ar    1  UNL1        0.0184
     20 C         142.6654  140.8475  163.7321 C.ar    1  UNL1        0.0129
     21 C         143.1296  139.5023  163.2578 C.ar    1  UNL1        0.0578
     22 CL        143.8934  139.3829  161.9724 Cl      1  UNL1       -0.0822
     23 C         142.8299  138.2766  164.0688 C.ar    1  UNL1        0.0129
     24 C         142.0661  138.3961  165.3543 C.ar    1  UNL1        0.0184
     25 C         139.1563  140.8004  160.5527 C.3     1  UNL1        0.0991
     26 C         141.0443  138.0099  157.5697 C.3     1  UNL1        0.0251
     27 C         139.6585  138.5337  157.3340 C.3     1  UNL1        0.0217
     28 C         139.0292  139.4639  158.3284 C.3     1  UNL1        0.0727
     29 N         139.7856  139.8702  159.5584 N.3     1  UNL1       -0.2689
     30 C         141.1712  139.3464  159.7940 C.3     1  UNL1        0.0727
     31 C         141.8006  138.4162  158.7996 C.3     1  UNL1        0.0217
     32 C         143.3648  135.1864  156.0227 C.ar    1  UNL1        0.0500
     33 C         142.9323  135.2193  154.5867 C.ar    1  UNL1        0.0147
     34 C         141.8704  136.1824  154.1452 C.ar    1  UNL1        0.0009
     35 C         141.2411  137.1125  155.1395 C.ar    1  UNL1       -0.0042
     36 C         141.6736  137.0797  156.5754 C.ar    1  UNL1       -0.0212
     37 C         142.7355  136.1166  157.0170 C.ar    1  UNL1        0.0104
     38 C         145.1023  131.9292  157.4794 C.3     1  UNL1        0.0949
     39 C         144.0403  132.8923  157.0378 C.2     1  UNL1        0.2266
     40 O         142.5922  132.5242  157.1698 O.2     1  UNL1       -0.2748
     41 N         144.4266  134.2234  156.4642 N.am    1  UNL1       -0.2839
     42 H         145.3771  134.4649  156.3776 H       1  UNL1        0.1549
@<TRIPOS>BOND
     1    38    39    1
     2    39    40    2
     3    39    41   am
     4    41    32    1
     5    32    33   ar
     6    33    34   ar
     7    34    35   ar
     8    35    36   ar
     9    36    26    1
    10    26    27    1
    11    27    28    1
    12    28    29    1
    13    29    25    1
    14    25     1    1
    15     1     2   ar
    16     2     3   ar
    17     3     4   ar
    18     4     7    1
    19     7     8    2
    20     7     9    1
    21     9    10   ar
    22    10    11   ar
    23    11    12   ar
    24    12    13   ar
    25    13    14   ar
    26    14    15   ar
    27    15    16   ar
    28    16    17   ar
    29    17    18    1
    30    18    19   ar
    31    19    20   ar
    32    20    21   ar
    33    21    22    1
    34    21    23   ar
    35    23    24   ar
    36     4     5   ar
    37     5     6   ar
    38    29    30    1
    39    30    31    1
    40    36    37   ar
    41    37    32   ar
    42    31    26    1
    43     6     1   ar
    44    17     9   ar
    45    24    18   ar
    46    16    11   ar
    47    41    42    1
@<TRIPOS>MOLECULE
*****
 42 47 0 0 0
SMALL
GASTEIGER

@<TRIPOS>ATOM
      1 C         143.9191  141.9686  162.1019 C.ar    1  UNL1       -0.0061
      2 C         144.5092  142.1414  163.4700 C.ar    1  UNL1       -0.0028
      3 C         144.0658  141.2546  164.5956 C.ar    1  UNL1        0.0030
      4 C         143.0322  140.1949  164.3530 C.ar    1  UNL1        0.0420
      5 C         142.4420  140.0222  162.9848 C.ar    1  UNL1        0.0030
      6 C         142.8855  140.9090  161.8593 C.ar    1  UNL1       -0.0028
      7 C         142.5887  139.3081  165.4785 C.2     1  UNL1        0.2297
      8 O         142.5012  137.8246  165.2746 O.2     1  UNL1       -0.2833
      9 C         142.2327  139.9047  166.8079 C.ar    1  UNL1        0.1873
     10 N         142.8508  139.5496  168.1277 N.ar    1  UNL1       -0.2235
     11 C         142.1962  140.3866  169.1864 C.ar    1  UNL1        0.0991
     12 C         142.3992  140.4670  170.6704 C.ar    1  UNL1        0.0206
     13 C         141.5796  141.4200  171.4889 C.ar    1  UNL1        0.0016
     14 C         140.5570  142.2925  170.8234 C.ar    1  UNL1        0.0016
     15 C         140.3539  142.2121  169.3395 C.ar    1  UNL1        0.0191
     16 C         141.1735  141.2592  168.5209 C.ar    1  UNL1        0.0830
     17 N         141.1961  140.9613  167.0510 N.ar    1  UNL1       -0.2877
     18 C         140.3335  141.6068  166.0073 C.ar    1  UNL1        0.0655
     19 C         140.7219  142.9356  165.4301 C.ar    1  UNL1        0.0184
     20 C         139.8593  143.5811  164.3864 C.ar    1  UNL1        0.0129
     21 C         138.6082  142.8977  163.9199 C.ar    1  UNL1        0.0578
     22 CL        137.7456  143.5432  162.8762 Cl      1  UNL1       -0.0822
     23 C         138.2197  141.5688  164.4971 C.ar    1  UNL1        0.0129
     24 C         139.0823  140.9234  165.5408 C.ar    1  UNL1        0.0184
     25 C         144.3626  142.8555  160.9763 C.3     1  UNL1        0.0991
     26 C         141.3355  144.5007  158.0815 C.3     1  UNL1        0.0251
     27 C         142.5319  143.7533  157.5715 C.3     1  UNL1        0.0217
     28 C         143.5409  143.2049  158.5364 C.3     1  UNL1        0.0727
     29 N         143.3535  143.4039  160.0114 N.3     1  UNL1       -0.2689
     30 C         142.1572  144.1513  160.5213 C.3     1  UNL1        0.0727
     31 C         141.1482  144.6997  159.5564 C.3     1  UNL1        0.0217
     32 C         138.9752  147.0579  156.1736 C.ar    1  UNL1        0.0500
     33 C         138.3083  146.1459  155.1868 C.ar    1  UNL1        0.0147
     34 C         138.6505  144.6857  155.1649 C.ar    1  UNL1        0.0009
     35 C         139.6595  144.1373  156.1298 C.ar    1  UNL1       -0.0042
     36 C         140.3264  145.0491  157.1166 C.ar    1  UNL1       -0.0212
     37 C         139.9843  146.5095  157.1385 C.ar    1  UNL1        0.0104
     38 C         138.8556  150.8968  155.1744 C.3     1  UNL1        0.0949
     39 C         139.1978  149.4365  155.1525 C.2     1  UNL1        0.2266
     40 O         140.1048  148.8946  154.0878 O.2     1  UNL1       -0.2748
     41 N         138.6330  148.5181  156.1954 N.am    1  UNL1       -0.2839
     42 H         138.0378  148.8738  156.8942 H       1  UNL1        0.1549
@<TRIPOS>BOND
     1    38    39    1
     2    39    40    2
     3    39    41   am
     4    41    32    1
     5    32    33   ar
     6    33    34   ar
     7    34    35   ar
     8    35    36   ar
     9    36    26    1
    10    26    27    1
    11    27    28    1
    12    28    29    1
    13    29    25    1
    14    25     1    1
    15     1     2   ar
    16     2     3   ar
    17     3     4   ar
    18     4     7    1
    19     7     8    2
    20     7     9    1
    21     9    10   ar
    22    10    11   ar
    23    11    12   ar
    24    12    13   ar
    25    13    14   ar
    26    14    15   ar
    27    15    16   ar
    28    16    17   ar
    29    17    18    1
    30    18    19   ar
    31    19    20   ar
    32    20    21   ar
    33    21    22    1
    34    21    23   ar
    35    23    24   ar
    36     4     5   ar
    37     5     6   ar
    38    29    30    1
    39    30    31    1
    40    36    37   ar
    41    37    32   ar
    42    31    26    1
    43     6     1   ar
    44    17     9   ar
    45    24    18   ar
    46    16    11   ar
    47    41    42    1
@<TRIPOS>MOLECULE
*****
 42 47 0 0 0
SMALL
GASTEIGER

@<TRIPOS>ATOM
      1 C         138.4860  138.8505  162.5192 C.ar    1  UNL1       -0.0061
      2 C         138.1003  140.1306  163.1994 C.ar    1  UNL1       -0.0028
      3 C         138.1039  140.2147  164.6971 C.ar    1  UNL1        0.0030
      4 C         138.4932  139.0188  165.5145 C.ar    1  UNL1        0.0420
      5 C         138.8789  137.7387  164.8343 C.ar    1  UNL1        0.0030
      6 C         138.8753  137.6546  163.3367 C.ar    1  UNL1       -0.0028
      7 C         138.4968  139.1029  167.0121 C.2     1  UNL1        0.2297
      8 O         137.4693  138.3539  167.8078 O.2     1  UNL1       -0.2833
      9 C         139.5279  139.9360  167.7141 C.ar    1  UNL1        0.1873
     10 N         139.3777  140.5717  169.0644 N.ar    1  UNL1       -0.2235
     11 C         140.6472  141.3083  169.3738 C.ar    1  UNL1        0.0991
     12 C         141.0727  142.1201  170.5612 C.ar    1  UNL1        0.0206
     13 C         142.4330  142.7513  170.5895 C.ar    1  UNL1        0.0016
     14 C         143.3679  142.5709  169.4304 C.ar    1  UNL1        0.0016
     15 C         142.9424  141.7592  168.2430 C.ar    1  UNL1        0.0191
     16 C         141.5820  141.1279  168.2147 C.ar    1  UNL1        0.0830
     17 N         140.8903  140.2798  167.1890 N.ar    1  UNL1       -0.2877
     18 C         141.4608  139.8507  165.8697 C.ar    1  UNL1        0.0655
     19 C         141.4400  140.7917  164.7019 C.ar    1  UNL1        0.0184
     20 C         142.0105  140.3627  163.3826 C.ar    1  UNL1        0.0129
     21 C         142.6018  138.9925  163.2312 C.ar    1  UNL1        0.0578
     22 CL        143.1723  138.5634  161.9119 Cl      1  UNL1       -0.0822
     23 C         142.6226  138.0514  164.3990 C.ar    1  UNL1        0.0129
     24 C         142.0521  138.4804  165.7183 C.ar    1  UNL1        0.0184
     25 C         138.4824  138.7663  161.0216 C.3     1  UNL1        0.0991
     26 C         140.1443  142.1569  158.5736 C.3     1  UNL1        0.0251
     27 C         141.0740  141.1795  159.2297 C.3     1  UNL1        0.0217
     28 C         140.5200  140.0493  160.0457 C.3     1  UNL1        0.0727
     29 N         139.0364  139.8965  160.2056 N.3     1  UNL1       -0.2689
     30 C         138.1067  140.8739  159.5494 C.3     1  UNL1        0.0727
     31 C         138.6607  142.0040  158.7334 C.3     1  UNL1        0.0217
     32 C         140.5365  145.7349  156.9021 C.ar    1  UNL1        0.0500
     33 C         141.8062  145.5474  156.1256 C.ar    1  UNL1        0.0147
     34 C         142.5218  144.2297  156.1651 C.ar    1  UNL1        0.0009
     35 C         141.9678  143.0995  156.9811 C.ar    1  UNL1       -0.0042
     36 C         140.6982  143.2870  157.7576 C.ar    1  UNL1       -0.0212
     37 C         139.9826  144.6048  157.7181 C.ar    1  UNL1        0.0104
     38 C         138.7548  148.9943  155.5049 C.3     1  UNL1        0.0949
     39 C         139.4704  147.6765  155.5444 C.2     1  UNL1        0.2266
     40 O         139.8354  146.9827  154.2656 O.2     1  UNL1       -0.2748
     41 N         139.8209  147.0526  156.8627 N.am    1  UNL1       -0.2839
     42 H         139.5813  147.5080  157.7020 H       1  UNL1        0.1549
@<TRIPOS>BOND
     1    38    39    1
     2    39    40    2
     3    39    41   am
     4    41    32    1
     5    32    33   ar
     6    33    34   ar
     7    34    35   ar
     8    35    36   ar
     9    36    26    1
    10    26    27    1
    11    27    28    1
    12    28    29    1
    13    29    25    1
    14    25     1    1
    15     1     2   ar
    16     2     3   ar
    17     3     4   ar
    18     4     7    1
    19     7     8    2
    20     7     9    1
    21     9    10   ar
    22    10    11   ar
    23    11    12   ar
    24    12    13   ar
    25    13    14   ar
    26    14    15   ar
    27    15    16   ar
    28    16    17   ar
    29    17    18    1
    30    18    19   ar
    31    19    20   ar
    32    20    21   ar
    33    21    22    1
    34    21    23   ar
    35    23    24   ar
    36     4     5   ar
    37     5     6   ar
    38    29    30    1
    39    30    31    1
    40    36    37   ar
    41    37    32   ar
    42    31    26    1
    43     6     1   ar
    44    17     9   ar
    45    24    18   ar
    46    16    11   ar
    47    41    42    1
@<TRIPOS>MOLECULE
*****
 42 47 0 0 0
SMALL
GASTEIGER

@<TRIPOS>ATOM
      1 C         140.1164  140.8078  161.6991 C.ar    1  UNL1       -0.0061
      2 C         138.7723  141.2740  162.1744 C.ar    1  UNL1       -0.0028
      3 C         138.3239  140.9687  163.5730 C.ar    1  UNL1        0.0030
      4 C         139.2198  140.1972  164.4961 C.ar    1  UNL1        0.0420
      5 C         140.5640  139.7310  164.0207 C.ar    1  UNL1        0.0030
      6 C         141.0122  140.0363  162.6222 C.ar    1  UNL1       -0.0028
      7 C         138.7716  139.8919  165.8946 C.2     1  UNL1        0.2297
      8 O         137.5408  139.0658  166.1242 O.2     1  UNL1       -0.2833
      9 C         139.5541  140.4128  167.0636 C.ar    1  UNL1        0.1873
     10 N         139.7379  139.7193  168.3809 N.ar    1  UNL1       -0.2235
     11 C         140.5876  140.5965  169.2519 C.ar    1  UNL1        0.0991
     12 C         141.0946  140.4297  170.6537 C.ar    1  UNL1        0.0206
     13 C         141.9429  141.4986  171.2765 C.ar    1  UNL1        0.0016
     14 C         142.2841  142.7342  170.4975 C.ar    1  UNL1        0.0016
     15 C         141.7771  142.9009  169.0957 C.ar    1  UNL1        0.0191
     16 C         140.9289  141.8321  168.4729 C.ar    1  UNL1        0.0830
     17 N         140.2901  141.7185  167.1205 N.ar    1  UNL1       -0.2877
     18 C         140.3729  142.7327  166.0184 C.ar    1  UNL1        0.0655
     19 C         139.2193  143.6561  165.7606 C.ar    1  UNL1        0.0184
     20 C         139.3021  144.6703  164.6585 C.ar    1  UNL1        0.0129
     21 C         140.5386  144.7611  163.8142 C.ar    1  UNL1        0.0578
     22 CL        140.6214  145.7753  162.7121 Cl      1  UNL1       -0.0822
     23 C         141.6923  143.8378  164.0720 C.ar    1  UNL1        0.0129
     24 C         141.6095  142.8236  165.1740 C.ar    1  UNL1        0.0184
     25 C         140.5647  141.1131  160.3005 C.3     1  UNL1        0.0991
     26 C         141.3522  137.7576  157.4073 C.3     1  UNL1        0.0251
     27 C         142.4795  138.3350  158.2110 C.3     1  UNL1        0.0217
     28 C         142.2170  139.4535  159.1754 C.3     1  UNL1        0.0727
     29 N         140.8272  139.9946  159.3361 N.3     1  UNL1       -0.2689
     30 C         139.7000  139.4172  158.5324 C.3     1  UNL1        0.0727
     31 C         139.9625  138.2987  157.5680 C.3     1  UNL1        0.0217
     32 C         143.0457  134.6046  155.6924 C.ar    1  UNL1        0.0500
     33 C         142.1397  134.4021  154.5141 C.ar    1  UNL1        0.0147
     34 C         140.9713  135.3181  154.3003 C.ar    1  UNL1        0.0009
     35 C         140.7088  136.4366  155.2647 C.ar    1  UNL1       -0.0042
     36 C         141.6147  136.6391  156.4429 C.ar    1  UNL1       -0.0212
     37 C         142.7832  135.7231  156.6568 C.ar    1  UNL1        0.0104
     38 C         145.1875  131.4579  156.8154 C.3     1  UNL1        0.0949
     39 C         144.0190  132.3739  156.6015 C.2     1  UNL1        0.2266
     40 O         142.6555  131.9751  157.0830 O.2     1  UNL1       -0.2748
     41 N         144.2141  133.6886  155.9063 N.am    1  UNL1       -0.2839
     42 H         145.1090  133.9504  155.5903 H       1  UNL1        0.1549
@<TRIPOS>BOND
     1    38    39    1
     2    39    40    2
     3    39    41   am
     4    41    32    1
     5    32    33   ar
     6    33    34   ar
     7    34    35   ar
     8    35    36   ar
     9    36    26    1
    10    26    27    1
    11    27    28    1
    12    28    29    1
    13    29    25    1
    14    25     1    1
    15     1     2   ar
    16     2     3   ar
    17     3     4   ar
    18     4     7    1
    19     7     8    2
    20     7     9    1
    21     9    10   ar
    22    10    11   ar
    23    11    12   ar
    24    12    13   ar
    25    13    14   ar
    26    14    15   ar
    27    15    16   ar
    28    16    17   ar
    29    17    18    1
    30    18    19   ar
    31    19    20   ar
    32    20    21   ar
    33    21    22    1
    34    21    23   ar
    35    23    24   ar
    36     4     5   ar
    37     5     6   ar
    38    29    30    1
    39    30    31    1
    40    36    37   ar
    41    37    32   ar
    42    31    26    1
    43     6     1   ar
    44    17     9   ar
    45    24    18   ar
    46    16    11   ar
    47    41    42    1
@<TRIPOS>MOLECULE
*****
 42 47 0 0 0
SMALL
GASTEIGER

@<TRIPOS>ATOM
      1 C         142.2417  138.1279  162.2514 C.ar    1  UNL1       -0.0061
      2 C         141.2996  137.6385  163.3111 C.ar    1  UNL1       -0.0028
      3 C         141.6627  137.7779  164.7598 C.ar    1  UNL1        0.0030
      4 C         142.9678  138.4066  165.1488 C.ar    1  UNL1        0.0420
      5 C         143.9099  138.8960  164.0890 C.ar    1  UNL1        0.0030
      6 C         143.5468  138.7566  162.6404 C.ar    1  UNL1       -0.0028
      7 C         143.3308  138.5460  166.5975 C.2     1  UNL1        0.2297
      8 O         144.4058  137.6823  167.1877 O.2     1  UNL1       -0.2833
      9 C         142.6189  139.5490  167.4560 C.ar    1  UNL1        0.1873
     10 N         142.2129  139.3548  168.8869 N.ar    1  UNL1       -0.2235
     11 C         141.5311  140.6081  169.3496 C.ar    1  UNL1        0.0991
     12 C         140.9223  140.9923  170.6655 C.ar    1  UNL1        0.0206
     13 C         140.2980  142.3455  170.8365 C.ar    1  UNL1        0.0016
     14 C         140.2826  143.3144  169.6916 C.ar    1  UNL1        0.0016
     15 C         140.8914  142.9302  168.3756 C.ar    1  UNL1        0.0191
     16 C         141.5157  141.5771  168.2046 C.ar    1  UNL1        0.0830
     17 N         142.1880  140.9225  167.0344 N.ar    1  UNL1       -0.2877
     18 C         142.3933  141.5341  165.6802 C.ar    1  UNL1        0.0655
     19 C         143.6920  142.2085  165.3508 C.ar    1  UNL1        0.0184
     20 C         143.8973  142.8201  163.9966 C.ar    1  UNL1        0.0129
     21 C         142.8038  142.7573  162.9718 C.ar    1  UNL1        0.0578
     22 CL        143.0091  143.3689  161.6176 Cl      1  UNL1       -0.0822
     23 C         141.5050  142.0830  163.3011 C.ar    1  UNL1        0.0129
     24 C         141.2997  141.4714  164.6553 C.ar    1  UNL1        0.0184
     25 C         141.8786  137.9885  160.8026 C.3     1  UNL1        0.0991
     26 C         142.2041  141.5339  158.0505 C.3     1  UNL1        0.0251
     27 C         141.1220  141.4869  159.0882 C.3     1  UNL1        0.0217
     28 C         141.0135  140.3051  160.0056 C.3     1  UNL1        0.0727
     29 N         141.9871  139.1703  159.8852 N.3     1  UNL1       -0.2689
     30 C         143.0692  139.2174  158.8475 C.3     1  UNL1        0.0727
     31 C         143.1777  140.3992  157.9301 C.3     1  UNL1        0.0217
     32 C         141.7010  145.1715  156.5453 C.ar    1  UNL1        0.0500
     33 C         142.5296  145.0793  155.2983 C.ar    1  UNL1        0.0147
     34 C         143.2497  143.8054  154.9687 C.ar    1  UNL1        0.0009
     35 C         143.1412  142.6236  155.8861 C.ar    1  UNL1       -0.0042
     36 C         142.3126  142.7157  157.1331 C.ar    1  UNL1       -0.0212
     37 C         141.5925  143.9897  157.4627 C.ar    1  UNL1        0.0104
     38 C         138.8884  147.9693  156.6534 C.3     1  UNL1        0.0949
     39 C         139.6085  146.6953  156.3238 C.2     1  UNL1        0.2266
     40 O         138.9560  145.6713  155.4431 O.2     1  UNL1       -0.2748
     41 N         140.9810  146.4454  156.8749 N.am    1  UNL1       -0.2839
     42 H         141.4092  147.1174  157.4530 H       1  UNL1        0.1549
@<TRIPOS>BOND
     1    38    39    1
     2    39    40    2
     3    39    41   am
     4    41    32    1
     5    32    33   ar
     6    33    34   ar
     7    34    35   ar
     8    35    36   ar
     9    36    26    1
    10    26    27    1
    11    27    28    1
    12    28    29    1
    13    29    25    1
    14    25     1    1
    15     1     2   ar
    16     2     3   ar
    17     3     4   ar
    18     4     7    1
    19     7     8    2
    20     7     9    1
    21     9    10   ar
    22    10    11   ar
    23    11    12   ar
    24    12    13   ar
    25    13    14   ar
    26    14    15   ar
    27    15    16   ar
    28    16    17   ar
    29    17    18    1
    30    18    19   ar
    31    19    20   ar
    32    20    21   ar
    33    21    22    1
    34    21    23   ar
    35    23    24   ar
    36     4     5   ar
    37     5     6   ar
    38    29    30    1
    39    30    31    1
    40    36    37   ar
    41    37    32   ar
    42    31    26    1
    43     6     1   ar
    44    17     9   ar
    45    24    18   ar
    46    16    11   ar
    47    41    42    1
@<TRIPOS>MOLECULE
*****
 42 47 0 0 0
SMALL
GASTEIGER

@<TRIPOS>ATOM
      1 C         138.2151  140.1201  162.2819 C.ar    1  UNL1       -0.0061
      2 C         137.9208  141.1948  163.2861 C.ar    1  UNL1       -0.0028
      3 C         138.0390  140.9035  164.7529 C.ar    1  UNL1        0.0030
      4 C         138.4516  139.5375  165.2153 C.ar    1  UNL1        0.0420
      5 C         138.7459  138.4628  164.2111 C.ar    1  UNL1        0.0030
      6 C         138.6276  138.7541  162.7444 C.ar    1  UNL1       -0.0028
      7 C         138.5698  139.2462  166.6820 C.2     1  UNL1        0.2297
      8 O         137.6771  138.2220  167.3175 O.2     1  UNL1       -0.2833
      9 C         139.5808  139.9791  167.5131 C.ar    1  UNL1        0.1873
     10 N         139.3877  140.4499  168.9241 N.ar    1  UNL1       -0.2235
     11 C         140.6499  141.1317  169.3622 C.ar    1  UNL1        0.0991
     12 C         141.0388  141.7911  170.6521 C.ar    1  UNL1        0.0206
     13 C         142.4009  142.4011  170.8018 C.ar    1  UNL1        0.0016
     14 C         143.3742  142.3516  169.6615 C.ar    1  UNL1        0.0016
     15 C         142.9854  141.6922  168.3716 C.ar    1  UNL1        0.0191
     16 C         141.6232  141.0822  168.2219 C.ar    1  UNL1        0.0830
     17 N         140.9624  140.3699  167.0791 N.ar    1  UNL1       -0.2877
     18 C         141.5757  140.0964  165.7378 C.ar    1  UNL1        0.0655
     19 C         141.6344  141.1820  164.7045 C.ar    1  UNL1        0.0184
     20 C         142.2477  140.9085  163.3632 C.ar    1  UNL1        0.0129
     21 C         142.8023  139.5493  163.0552 C.ar    1  UNL1        0.0578
     22 CL        143.4155  139.2758  161.7139 Cl      1  UNL1       -0.0822
     23 C         142.7436  138.4635  164.0885 C.ar    1  UNL1        0.0129
     24 C         142.1303  138.7370  165.4298 C.ar    1  UNL1        0.0184
     25 C         138.0968  140.4114  160.8152 C.3     1  UNL1        0.0991
     26 C         141.5865  139.6422  158.0801 C.3     1  UNL1        0.0251
     27 C         141.5954  140.8347  158.9901 C.3     1  UNL1        0.0217
     28 C         140.4322  141.0911  159.9018 C.3     1  UNL1        0.0727
     29 N         139.2601  140.1550  159.9035 N.3     1  UNL1       -0.2689
     30 C         139.2512  138.9626  158.9936 C.3     1  UNL1        0.0727
     31 C         140.4144  138.7062  158.0819 C.3     1  UNL1        0.0217
     32 C         145.0512  140.1047  156.2008 C.ar    1  UNL1        0.0500
     33 C         145.0761  138.8730  155.3450 C.ar    1  UNL1        0.0147
     34 C         143.9378  137.8977  155.4010 C.ar    1  UNL1        0.0009
     35 C         142.7746  138.1541  156.3127 C.ar    1  UNL1       -0.0042
     36 C         142.7497  139.3858  157.1684 C.ar    1  UNL1       -0.0212
     37 C         143.8880  140.3611  157.1125 C.ar    1  UNL1        0.0104
     38 C         147.3737  143.0931  155.0068 C.3     1  UNL1        0.0949
     39 C         146.2354  142.1178  155.0628 C.2     1  UNL1        0.2266
     40 O         145.1431  142.1804  154.0367 O.2     1  UNL1       -0.2748
     41 N         146.1895  141.0800  156.1448 N.am    1  UNL1       -0.2839
     42 H         146.9064  141.0389  156.8182 H       1  UNL1        0.1549
@<TRIPOS>BOND
     1    38    39    1
     2    39    40    2
     3    39    41   am
     4    41    32    1
     5    32    33   ar
     6    33    34   ar
     7    34    35   ar
     8    35    36   ar
     9    36    26    1
    10    26    27    1
    11    27    28    1
    12    28    29    1
    13    29    25    1
    14    25     1    1
    15     1     2   ar
    16     2     3   ar
    17     3     4   ar
    18     4     7    1
    19     7     8    2
    20     7     9    1
    21     9    10   ar
    22    10    11   ar
    23    11    12   ar
    24    12    13   ar
    25    13    14   ar
    26    14    15   ar
    27    15    16   ar
    28    16    17   ar
    29    17    18    1
    30    18    19   ar
    31    19    20   ar
    32    20    21   ar
    33    21    22    1
    34    21    23   ar
    35    23    24   ar
    36     4     5   ar
    37     5     6   ar
    38    29    30    1
    39    30    31    1
    40    36    37   ar
    41    37    32   ar
    42    31    26    1
    43     6     1   ar
    44    17     9   ar
    45    24    18   ar
    46    16    11   ar
    47    41    42    1
@<TRIPOS>MOLECULE
*****
 42 47 0 0 0
SMALL
GASTEIGER

@<TRIPOS>ATOM
      1 C         143.2175  140.0606  162.0838 C.ar    1  UNL1       -0.0061
      2 C         144.4949  140.1956  162.8583 C.ar    1  UNL1       -0.0028
      3 C         144.5230  139.8672  164.3217 C.ar    1  UNL1        0.0030
      4 C         143.2737  139.4039  165.0105 C.ar    1  UNL1        0.0420
      5 C         141.9962  139.2689  164.2359 C.ar    1  UNL1        0.0030
      6 C         141.9681  139.5973  162.7726 C.ar    1  UNL1       -0.0028
      7 C         143.3017  139.0755  166.4738 C.2     1  UNL1        0.2297
      8 O         144.1104  137.9120  166.9660 O.2     1  UNL1       -0.2833
      9 C         142.5211  139.9107  167.4450 C.ar    1  UNL1        0.1873
     10 N         141.8922  139.4264  168.7178 N.ar    1  UNL1       -0.2235
     11 C         141.2147  140.5931  169.3733 C.ar    1  UNL1        0.0991
     12 C         140.4336  140.7137  170.6482 C.ar    1  UNL1        0.0206
     13 C         139.8627  142.0396  171.0554 C.ar    1  UNL1        0.0016
     14 C         140.0729  143.2450  170.1877 C.ar    1  UNL1        0.0016
     15 C         140.8540  143.1245  168.9129 C.ar    1  UNL1        0.0191
     16 C         141.4249  141.7985  168.5057 C.ar    1  UNL1        0.0830
     17 N         142.2323  141.3767  167.3139 N.ar    1  UNL1       -0.2877
     18 C         142.6734  142.2651  166.1887 C.ar    1  UNL1        0.0655
     19 C         141.7238  142.5920  165.0746 C.ar    1  UNL1        0.0184
     20 C         142.1649  143.4803  163.9493 C.ar    1  UNL1        0.0129
     21 C         143.5557  144.0419  163.9381 C.ar    1  UNL1        0.0578
     22 CL        143.9968  144.9303  162.8129 Cl      1  UNL1       -0.0822
     23 C         144.5055  143.7151  165.0522 C.ar    1  UNL1        0.0129
     24 C         144.0644  142.8267  166.1775 C.ar    1  UNL1        0.0184
     25 C         143.1894  140.3890  160.6204 C.3     1  UNL1        0.0991
     26 C         142.8817  137.0866  157.5790 C.3     1  UNL1        0.0251
     27 C         142.9601  136.7558  159.0401 C.3     1  UNL1        0.0217
     28 C         143.0627  137.8565  160.0538 C.3     1  UNL1        0.0727
     29 N         143.0868  139.2882  159.6066 N.3     1  UNL1       -0.2689
     30 C         143.0085  139.6190  158.1457 C.3     1  UNL1        0.0727
     31 C         142.9059  138.5182  157.1319 C.3     1  UNL1        0.0217
     32 C         142.6859  133.4525  155.9963 C.ar    1  UNL1        0.0500
     33 C         142.5740  133.7843  154.5377 C.ar    1  UNL1        0.0147
     34 C         142.5647  135.2167  154.0929 C.ar    1  UNL1        0.0009
     35 C         142.6673  136.3175  155.1067 C.ar    1  UNL1       -0.0042
     36 C         142.7791  135.9858  156.5653 C.ar    1  UNL1       -0.0212
     37 C         142.7885  134.5533  157.0101 C.ar    1  UNL1        0.0104
     38 C         143.9976  129.8298  156.9481 C.3     1  UNL1        0.0949
     39 C         143.9883  131.2624  156.5033 C.2     1  UNL1        0.2266
     40 O         145.2721  131.9373  156.1209 O.2     1  UNL1       -0.2748
     41 N         142.6952  132.0200  156.4411 N.am    1  UNL1       -0.2839
     42 H         141.8526  131.5771  156.6921 H       1  UNL1        0.1549
@<TRIPOS>BOND
     1    38    39    1
     2    39    40    2
     3    39    41   am
     4    41    32    1
     5    32    33   ar
     6    33    34   ar
     7    34    35   ar
     8    35    36   ar
     9    36    26    1
    10    26    27    1
    11    27    28    1
    12    28    29    1
    13    29    25    1
    14    25     1    1
    15     1     2   ar
    16     2     3   ar
    17     3     4   ar
    18     4     7    1
    19     7     8    2
    20     7     9    1
    21     9    10   ar
    22    10    11   ar
    23    11    12   ar
    24    12    13   ar
    25    13    14   ar
    26    14    15   ar
    27    15    16   ar
    28    16    17   ar
    29    17    18    1
    30    18    19   ar
    31    19    20   ar
    32    20    21   ar
    33    21    22    1
    34    21    23   ar
    35    23    24   ar
    36     4     5   ar
    37     5     6   ar
    38    29    30    1
    39    30    31    1
    40    36    37   ar
    41    37    32   ar
    42    31    26    1
    43     6     1   ar
    44    17     9   ar
    45    24    18   ar
    46    16    11   ar
    47    41    42    1
@<TRIPOS>MOLECULE
*****
 42 47 0 0 0
SMALL
GASTEIGER

@<TRIPOS>ATOM
      1 C         144.0575  142.1590  161.4805 C.ar    1  UNL1       -0.0061
      2 C         143.8222  143.5823  161.8914 C.ar    1  UNL1       -0.0028
      3 C         143.9152  143.9706  163.3374 C.ar    1  UNL1        0.0030
      4 C         144.2433  142.9356  164.3723 C.ar    1  UNL1        0.0420
      5 C         144.4786  141.5123  163.9613 C.ar    1  UNL1        0.0030
      6 C         144.3857  141.1240  162.5154 C.ar    1  UNL1       -0.0028
      7 C         144.3362  143.3239  165.8182 C.2     1  UNL1        0.2297
      8 O         145.3736  144.3111  166.2644 O.2     1  UNL1       -0.2833
      9 C         143.3917  142.7249  166.8178 C.ar    1  UNL1        0.1873
     10 N         143.7138  142.3887  168.2437 N.ar    1  UNL1       -0.2235
     11 C         142.4805  141.8130  168.8742 C.ar    1  UNL1        0.0991
     12 C         142.2047  141.3042  170.2580 C.ar    1  UNL1        0.0206
     13 C         140.8446  140.7757  170.6055 C.ar    1  UNL1        0.0016
     14 C         139.7603  140.7561  169.5692 C.ar    1  UNL1        0.0016
     15 C         140.0361  141.2649  168.1854 C.ar    1  UNL1        0.0191
     16 C         141.3962  141.7934  167.8379 C.ar    1  UNL1        0.0830
     17 N         141.9594  142.3570  166.5670 N.ar    1  UNL1       -0.2877
     18 C         141.2200  142.5234  165.2726 C.ar    1  UNL1        0.0655
     19 C         141.0028  141.3411  164.3755 C.ar    1  UNL1        0.0184
     20 C         140.2634  141.5075  163.0810 C.ar    1  UNL1        0.0129
     21 C         139.7411  142.8563  162.6837 C.ar    1  UNL1        0.0578
     22 CL        139.0017  143.0228  161.3892 Cl      1  UNL1       -0.0822
     23 C         139.9582  144.0387  163.5808 C.ar    1  UNL1        0.0129
     24 C         140.6976  143.8723  164.8752 C.ar    1  UNL1        0.0184
     25 C         143.9646  141.7707  160.0346 C.3     1  UNL1        0.0991
     26 C         140.7903  143.5912  157.4155 C.3     1  UNL1        0.0251
     27 C         140.4682  142.3973  158.2647 C.3     1  UNL1        0.0217
     28 C         141.5263  141.7905  159.1377 C.3     1  UNL1        0.0727
     29 N         142.9065  142.3775  159.1615 N.3     1  UNL1       -0.2689
     30 C         143.2285  143.5713  158.3124 C.3     1  UNL1        0.0727
     31 C         142.1704  144.1781  157.4393 C.3     1  UNL1        0.0217
     32 C         138.8740  146.1740  155.0902 C.ar    1  UNL1        0.0500
     33 C         137.6160  145.4116  154.7964 C.ar    1  UNL1        0.0147
     34 C         137.4161  144.0425  155.3757 C.ar    1  UNL1        0.0009
     35 C         138.4742  143.4357  156.2487 C.ar    1  UNL1       -0.0042
     36 C         139.7322  144.1980  156.5425 C.ar    1  UNL1       -0.0212
     37 C         139.9321  145.5671  155.9632 C.ar    1  UNL1        0.0104
     38 C         139.1143  150.1247  154.8001 C.3     1  UNL1        0.0949
     39 C         138.9144  148.7555  155.3795 C.2     1  UNL1        0.2266
     40 O         138.5549  148.5990  156.8273 O.2     1  UNL1       -0.2748
     41 N         139.0739  147.5431  154.5109 N.am    1  UNL1       -0.2839
     42 H         139.3098  147.6458  153.5606 H       1  UNL1        0.1549
@<TRIPOS>BOND
     1    38    39    1
     2    39    40    2
     3    39    41   am
     4    41    32    1
     5    32    33   ar
     6    33    34   ar
     7    34    35   ar
     8    35    36   ar
     9    36    26    1
    10    26    27    1
    11    27    28    1
    12    28    29    1
    13    29    25    1
    14    25     1    1
    15     1     2   ar
    16     2     3   ar
    17     3     4   ar
    18     4     7    1
    19     7     8    2
    20     7     9    1
    21     9    10   ar
    22    10    11   ar
    23    11    12   ar
    24    12    13   ar
    25    13    14   ar
    26    14    15   ar
    27    15    16   ar
    28    16    17   ar
    29    17    18    1
    30    18    19   ar
    31    19    20   ar
    32    20    21   ar
    33    21    22    1
    34    21    23   ar
    35    23    24   ar
    36     4     5   ar
    37     5     6   ar
    38    29    30    1
    39    30    31    1
    40    36    37   ar
    41    37    32   ar
    42    31    26    1
    43     6     1   ar
    44    17     9   ar
    45    24    18   ar
    46    16    11   ar
    47    41    42    1
@<TRIPOS>MOLECULE
*****
 42 47 0 0 0
SMALL
GASTEIGER

@<TRIPOS>ATOM
      1 C         141.5418  138.2533  162.4119 C.ar    1  UNL1       -0.0061
      2 C         140.6604  137.9418  163.5849 C.ar    1  UNL1       -0.0028
      3 C         141.1959  138.0696  164.9803 C.ar    1  UNL1        0.0030
      4 C         142.6129  138.5089  165.2025 C.ar    1  UNL1        0.0420
      5 C         143.4943  138.8203  164.0293 C.ar    1  UNL1        0.0030
      6 C         142.9587  138.6925  162.6341 C.ar    1  UNL1       -0.0028
      7 C         143.1484  138.6367  166.5978 C.2     1  UNL1        0.2297
      8 O         144.3098  137.7943  167.0353 O.2     1  UNL1       -0.2833
      9 C         142.5226  139.6068  167.5554 C.ar    1  UNL1        0.1873
     10 N         142.1222  139.3143  168.9711 N.ar    1  UNL1       -0.2235
     11 C         141.5394  140.5665  169.5562 C.ar    1  UNL1        0.0991
     12 C         140.9773  140.8734  170.9126 C.ar    1  UNL1        0.0206
     13 C         140.4554  142.2468  171.2149 C.ar    1  UNL1        0.0016
     14 C         140.4955  143.3132  170.1608 C.ar    1  UNL1        0.0016
     15 C         141.0576  143.0063  168.8044 C.ar    1  UNL1        0.0191
     16 C         141.5795  141.6330  168.5021 C.ar    1  UNL1        0.0830
     17 N         142.1872  141.0398  167.2656 N.ar    1  UNL1       -0.2877
     18 C         142.4187  141.7543  165.9672 C.ar    1  UNL1        0.0655
     19 C         143.7491  142.3876  165.6864 C.ar    1  UNL1        0.0184
     20 C         143.9807  143.1021  164.3880 C.ar    1  UNL1        0.0129
     21 C         142.8818  143.1833  163.3702 C.ar    1  UNL1        0.0578
     22 CL        143.1133  143.8977  162.0718 Cl      1  UNL1       -0.0822
     23 C         141.5513  142.5499  163.6509 C.ar    1  UNL1        0.0129
     24 C         141.3198  141.8355  164.9494 C.ar    1  UNL1        0.0184
     25 C         141.0062  138.1255  161.0165 C.3     1  UNL1        0.0991
     26 C         142.9342  140.4043  157.6491 C.3     1  UNL1        0.0251
     27 C         143.0752  138.9127  157.7226 C.3     1  UNL1        0.0217
     28 C         142.4325  138.1531  158.8451 C.3     1  UNL1        0.0727
     29 N         141.6489  138.8851  159.8940 N.3     1  UNL1       -0.2689
     30 C         141.5080  140.3766  159.8205 C.3     1  UNL1        0.0727
     31 C         142.1507  141.1362  158.6980 C.3     1  UNL1        0.0217
     32 C         145.6614  141.6849  155.0659 C.ar    1  UNL1        0.0500
     33 C         144.8622  142.6832  154.2817 C.ar    1  UNL1        0.0147
     34 C         143.4205  142.9218  154.6200 C.ar    1  UNL1        0.0009
     35 C         142.7779  142.1622  155.7424 C.ar    1  UNL1       -0.0042
     36 C         143.5769  141.1640  156.5266 C.ar    1  UNL1       -0.0212
     37 C         145.0187  140.9253  156.1883 C.ar    1  UNL1        0.0104
     38 C         149.6223  141.6930  155.3130 C.3     1  UNL1        0.0949
     39 C         148.1805  141.9317  155.6514 C.2     1  UNL1        0.2266
     40 O         147.8163  142.6558  156.9135 O.2     1  UNL1       -0.2748
     41 N         147.1031  141.4462  154.7276 N.am    1  UNL1       -0.2839
     42 H         147.3422  140.9710  153.8992 H       1  UNL1        0.1549
@<TRIPOS>BOND
     1    38    39    1
     2    39    40    2
     3    39    41   am
     4    41    32    1
     5    32    33   ar
     6    33    34   ar
     7    34    35   ar
     8    35    36   ar
     9    36    26    1
    10    26    27    1
    11    27    28    1
    12    28    29    1
    13    29    25    1
    14    25     1    1
    15     1     2   ar
    16     2     3   ar
    17     3     4   ar
    18     4     7    1
    19     7     8    2
    20     7     9    1
    21     9    10   ar
    22    10    11   ar
    23    11    12   ar
    24    12    13   ar
    25    13    14   ar
    26    14    15   ar
    27    15    16   ar
    28    16    17   ar
    29    17    18    1
    30    18    19   ar
    31    19    20   ar
    32    20    21   ar
    33    21    22    1
    34    21    23   ar
    35    23    24   ar
    36     4     5   ar
    37     5     6   ar
    38    29    30    1
    39    30    31    1
    40    36    37   ar
    41    37    32   ar
    42    31    26    1
    43     6     1   ar
    44    17     9   ar
    45    24    18   ar
    46    16    11   ar
    47    41    42    1
