@<TRIPOS>MOLECULE
*****
 41 44 0 0 0
SMALL
GASTEIGER

@<TRIPOS>ATOM
      1 C         144.2313  141.5440  163.5018 C.3     1  UNL1        0.1017
      2 C         144.4271  142.9610  163.0503 C.3     1  UNL1        0.0394
      3 C         144.5250  143.2751  161.5868 C.3     1  UNL1        0.0740
      4 N         144.4271  142.1723  160.5748 N.3     1  UNL1       -0.2701
      5 C         144.2313  140.7553  161.0263 C.3     1  UNL1        0.1037
      6 C         144.1334  140.4412  162.4897 C.3     1  UNL1        0.1490
      7 C         142.9334  141.6726  165.7487 C.2     1  UNL1        0.2488
      8 O         141.8312  142.4295  165.0688 O.2     1  UNL1       -0.2700
      9 N         144.1334  141.2299  164.9652 N.am    1  UNL1       -0.2999
     10 H         144.8568  140.7331  165.4115 H       1  UNL1        0.1498
     11 C         142.6505  139.9402  167.6641 C.ar    1  UNL1        0.1443
     12 C         142.5526  139.6261  169.1276 C.ar    1  UNL1        0.0520
     13 C         142.6398  140.7302  170.1391 C.ar    1  UNL1        0.0553
     14 N         142.5420  140.4161  171.6026 N.pl3   1  UNL1       -0.3563
     15 C         142.8249  142.1485  169.6872 C.ar    1  UNL1        0.0709
     16 CL        142.9121  143.2526  170.6988 Cl      1  UNL1       -0.0810
     17 C         142.9227  142.4626  168.2238 C.ar    1  UNL1        0.0202
     18 C         142.8355  141.3585  167.2122 C.ar    1  UNL1        0.0882
     19 H         142.4205  139.4852  171.8992 H       1  UNL1        0.1424
     20 H         142.5992  141.1407  172.2666 H       1  UNL1        0.1424
     21 C         143.7640  137.9834  166.3675 C.3     1  UNL1        0.2525
     22 O         142.5632  138.8361  166.6526 O.3     1  UNL1       -0.4712
     23 O         143.9377  139.0242  162.9412 O.3     1  UNL1       -0.3505
     24 C         142.6112  138.3515  162.7466 C.3     1  UNL1        0.1741
     25 C         144.5250  142.4864  159.1114 C.3     1  UNL1        0.0818
     26 C         143.2881  142.8220  158.3319 C.3     1  UNL1        0.1026
     27 C         142.1737  143.5845  158.9853 C.2     1  UNL1        0.2270
     28 O         142.1507  145.0828  158.9192 O.2     1  UNL1       -0.2748
     29 N         141.0824  142.8486  159.7046 N.am    1  UNL1       -0.2795
     30 C         141.1055  141.3501  159.7707 C.3     1  UNL1        0.0934
     31 C         140.0142  140.6142  160.4900 C.3     1  UNL1        0.0219
     32 C         138.8998  141.3767  161.1434 C.3     1  UNL1        0.0078
     33 C         138.8767  142.8751  161.0773 C.3     1  UNL1        0.0219
     34 C         139.9680  143.6110  160.3580 C.3     1  UNL1        0.0934
     35 C         137.8085  140.6408  161.8627 C.3     1  UNL1        0.0265
     36 C         138.1242  139.8530  163.0996 C.ar    1  UNL1       -0.0222
     37 C         138.5863  138.4306  162.9852 C.ar    1  UNL1       -0.0043
     38 C         138.9019  137.6429  164.2221 C.ar    1  UNL1       -0.0003
     39 C         138.7555  138.2776  165.5733 C.ar    1  UNL1       -0.0000
     40 C         138.2933  139.7000  165.6876 C.ar    1  UNL1       -0.0003
     41 C         137.9777  140.4877  164.4508 C.ar    1  UNL1       -0.0043
@<TRIPOS>BOND
     1    21    22    1
     2    22    11    1
     3    11    12   ar
     4    12    13   ar
     5    13    14    1
     6    13    15   ar
     7    15    16    1
     8    15    17   ar
     9    17    18   ar
    10    18     7    1
    11     7     8    2
    12     7     9   am
    13     1     9    1
    14     1     2    1
    15     2     3    1
    16     3     4    1
    17     4    25    1
    18    25    26    1
    19    26    27    1
    20    27    28    2
    21    27    29   am
    22    29    30    1
    23    30    31    1
    24    31    32    1
    25    32    35    1
    26    35    36    1
    27    36    37   ar
    28    37    38   ar
    29    38    39   ar
    30    39    40   ar
    31    40    41   ar
    32    32    33    1
    33    33    34    1
    34     4     5    1
    35     5     6    1
    36     6    23    1
    37    23    24    1
    38    18    11   ar
    39     6     1    1
    40    34    29    1
    41    41    36   ar
    42    14    19    1
    43    14    20    1
    44     9    10    1
@<TRIPOS>MOLECULE
*****
 41 44 0 0 0
SMALL
GASTEIGER

@<TRIPOS>ATOM
      1 C         138.7819  140.7077  164.4213 C.3     1  UNL1        0.1017
      2 C         139.0841  139.3760  163.8005 C.3     1  UNL1        0.0394
      3 C         138.5445  139.0424  162.4412 C.3     1  UNL1        0.0740
      4 N         137.7028  140.0405  161.7028 N.3     1  UNL1       -0.2701
      5 C         137.4006  141.3722  162.3236 C.3     1  UNL1        0.1037
      6 C         137.9401  141.7058  163.6828 C.3     1  UNL1        0.1490
      7 C         140.6070  141.8031  165.9109 C.2     1  UNL1        0.2488
      8 O         141.3530  142.2313  164.6821 O.2     1  UNL1       -0.2700
      9 N         139.3215  141.0413  165.7805 N.am    1  UNL1       -0.2999
     10 H         138.8319  140.7602  166.5871 H       1  UNL1        0.1498
     11 C         142.4067  141.4852  167.7576 C.ar    1  UNL1        0.1443
     12 C         142.9462  141.8188  169.1168 C.ar    1  UNL1        0.0520
     13 C         142.2255  142.8039  169.9888 C.ar    1  UNL1        0.0553
     14 N         142.7650  143.1375  171.3481 N.pl3   1  UNL1       -0.3563
     15 C         140.9653  143.4554  169.5014 C.ar    1  UNL1        0.0709
     16 CL        140.2446  144.4404  170.3734 Cl      1  UNL1       -0.0810
     17 C         140.4259  143.1218  168.1422 C.ar    1  UNL1        0.0202
     18 C         141.1465  142.1367  167.2703 C.ar    1  UNL1        0.0882
     19 H         143.5921  142.7099  171.6679 H       1  UNL1        0.1424
     20 H         142.2920  143.7840  171.9204 H       1  UNL1        0.1424
     21 C         142.9009  139.0289  167.0703 C.3     1  UNL1        0.2525
     22 O         143.1274  140.5002  166.8856 O.3     1  UNL1       -0.4712
     23 O         137.6380  143.0374  164.3036 O.3     1  UNL1       -0.3505
     24 C         138.4492  144.2417  163.9274 C.3     1  UNL1        0.1741
     25 C         137.1632  139.7069  160.3435 C.3     1  UNL1        0.0818
     26 C         137.8766  140.1876  159.1147 C.3     1  UNL1        0.1026
     27 C         139.2676  139.7099  158.8199 C.2     1  UNL1        0.2270
     28 O         139.4770  138.4436  158.0436 O.2     1  UNL1       -0.2748
     29 N         140.4493  140.4985  159.3014 N.am    1  UNL1       -0.2795
     30 C         140.2398  141.7649  160.0777 C.3     1  UNL1        0.0934
     31 C         141.4214  142.5535  160.5592 C.3     1  UNL1        0.0219
     32 C         142.8125  142.0758  160.2644 C.3     1  UNL1        0.0078
     33 C         143.0219  140.8095  159.4881 C.3     1  UNL1        0.0219
     34 C         141.8403  140.0209  159.0066 C.3     1  UNL1        0.0934
     35 C         143.9941  142.8644  160.7459 C.3     1  UNL1        0.0265
     36 C         144.1650  143.1408  162.2104 C.ar    1  UNL1       -0.0222
     37 C         144.8137  142.1185  163.0958 C.ar    1  UNL1       -0.0043
     38 C         144.9845  142.3949  164.5602 C.ar    1  UNL1       -0.0003
     39 C         144.5067  143.6935  165.1391 C.ar    1  UNL1       -0.0000
     40 C         143.8580  144.7158  164.2536 C.ar    1  UNL1       -0.0003
     41 C         143.6871  144.4394  162.7893 C.ar    1  UNL1       -0.0043
@<TRIPOS>BOND
     1    21    22    1
     2    22    11    1
     3    11    12   ar
     4    12    13   ar
     5    13    14    1
     6    13    15   ar
     7    15    16    1
     8    15    17   ar
     9    17    18   ar
    10    18     7    1
    11     7     8    2
    12     7     9   am
    13     1     9    1
    14     1     2    1
    15     2     3    1
    16     3     4    1
    17     4    25    1
    18    25    26    1
    19    26    27    1
    20    27    28    2
    21    27    29   am
    22    29    30    1
    23    30    31    1
    24    31    32    1
    25    32    35    1
    26    35    36    1
    27    36    37   ar
    28    37    38   ar
    29    38    39   ar
    30    39    40   ar
    31    40    41   ar
    32    32    33    1
    33    33    34    1
    34     4     5    1
    35     5     6    1
    36     6    23    1
    37    23    24    1
    38    18    11   ar
    39     6     1    1
    40    34    29    1
    41    41    36   ar
    42    14    19    1
    43    14    20    1
    44     9    10    1
@<TRIPOS>MOLECULE
*****
 41 44 0 0 0
SMALL
GASTEIGER

@<TRIPOS>ATOM
      1 C         138.7817  140.7901  164.2919 C.3     1  UNL1        0.1017
      2 C         138.1960  141.8893  163.4559 C.3     1  UNL1        0.0394
      3 C         137.6719  141.5892  162.0828 C.3     1  UNL1        0.0740
      4 N         137.7336  140.1901  161.5457 N.3     1  UNL1       -0.2701
      5 C         138.3193  139.0909  162.3816 C.3     1  UNL1        0.1037
      6 C         138.8434  139.3909  163.7547 C.3     1  UNL1        0.1490
      7 C         140.6205  141.7934  165.8288 C.2     1  UNL1        0.2488
      8 O         141.4112  142.1967  164.6197 O.2     1  UNL1       -0.2700
      9 N         139.3058  141.0901  165.6649 N.am    1  UNL1       -0.2999
     10 H         138.7868  140.8255  166.4586 H       1  UNL1        0.1498
     11 C         142.3751  141.3978  167.7036 C.ar    1  UNL1        0.1443
     12 C         142.8991  141.6978  169.0767 C.ar    1  UNL1        0.0520
     13 C         142.1925  142.6934  169.9481 C.ar    1  UNL1        0.0553
     14 N         142.7165  142.9934  171.3213 N.pl3   1  UNL1       -0.3563
     15 C         140.9619  143.3891  169.4465 C.ar    1  UNL1        0.0709
     16 CL        140.2553  144.3847  170.3179 Cl      1  UNL1       -0.0810
     17 C         140.4379  143.0890  168.0734 C.ar    1  UNL1        0.0202
     18 C         141.1445  142.0934  167.2020 C.ar    1  UNL1        0.0882
     19 H         143.5242  142.5368  171.6505 H       1  UNL1        0.1424
     20 H         142.2528  143.6469  171.8932 H       1  UNL1        0.1424
     21 C         143.0002  138.9380  167.1479 C.3     1  UNL1        0.2525
     22 O         143.0817  140.4021  166.8322 O.3     1  UNL1       -0.4712
     23 O         139.4291  138.2918  164.5906 O.3     1  UNL1       -0.3505
     24 C         140.8135  137.7895  164.3060 C.3     1  UNL1        0.1741
     25 C         137.2096  139.8901  160.1726 C.3     1  UNL1        0.0818
     26 C         138.0831  140.1065  158.9726 C.3     1  UNL1        0.1026
     27 C         138.6400  141.4696  158.6864 C.2     1  UNL1        0.2270
     28 O         137.8533  142.4426  157.8592 O.2     1  UNL1       -0.2748
     29 N         139.9836  141.8596  159.2273 N.am    1  UNL1       -0.2795
     30 C         140.7703  140.8864  160.0545 C.3     1  UNL1        0.0934
     31 C         142.1139  141.2764  160.5955 C.3     1  UNL1        0.0219
     32 C         142.6708  142.6395  160.3092 C.3     1  UNL1        0.0078
     33 C         141.8841  143.6126  159.4821 C.3     1  UNL1        0.0219
     34 C         140.5405  143.2226  158.9411 C.3     1  UNL1        0.0934
     35 C         144.0144  143.0295  160.8502 C.3     1  UNL1        0.0265
     36 C         144.1970  143.2409  162.3240 C.ar    1  UNL1       -0.0222
     37 C         143.7197  144.5106  162.9644 C.ar    1  UNL1       -0.0043
     38 C         143.9023  144.7219  164.4381 C.ar    1  UNL1       -0.0003
     39 C         144.5621  143.6636  165.2715 C.ar    1  UNL1       -0.0000
     40 C         145.0394  142.3939  164.6312 C.ar    1  UNL1       -0.0003
     41 C         144.8569  142.1826  163.1574 C.ar    1  UNL1       -0.0043
@<TRIPOS>BOND
     1    21    22    1
     2    22    11    1
     3    11    12   ar
     4    12    13   ar
     5    13    14    1
     6    13    15   ar
     7    15    16    1
     8    15    17   ar
     9    17    18   ar
    10    18     7    1
    11     7     8    2
    12     7     9   am
    13     1     9    1
    14     1     2    1
    15     2     3    1
    16     3     4    1
    17     4    25    1
    18    25    26    1
    19    26    27    1
    20    27    28    2
    21    27    29   am
    22    29    30    1
    23    30    31    1
    24    31    32    1
    25    32    35    1
    26    35    36    1
    27    36    37   ar
    28    37    38   ar
    29    38    39   ar
    30    39    40   ar
    31    40    41   ar
    32    32    33    1
    33    33    34    1
    34     4     5    1
    35     5     6    1
    36     6    23    1
    37    23    24    1
    38    18    11   ar
    39     6     1    1
    40    34    29    1
    41    41    36   ar
    42    14    19    1
    43    14    20    1
    44     9    10    1
@<TRIPOS>MOLECULE
*****
 41 44 0 0 0
SMALL
GASTEIGER

@<TRIPOS>ATOM
      1 C         141.5778  138.2631  163.5033 C.3     1  UNL1        0.1017
      2 C         143.0153  138.2125  163.0778 C.3     1  UNL1        0.0394
      3 C         143.3630  138.0506  161.6276 C.3     1  UNL1        0.0740
      4 N         142.2732  137.9392  160.6030 N.3     1  UNL1       -0.2701
      5 C         140.8357  137.9897  161.0285 C.3     1  UNL1        0.1037
      6 C         140.4880  138.1517  162.4786 C.3     1  UNL1        0.1490
      7 C         141.7771  139.5854  165.7308 C.2     1  UNL1        0.2488
      8 O         142.6718  140.5838  165.0580 O.2     1  UNL1       -0.2700
      9 N         141.2301  138.4250  164.9534 N.am    1  UNL1       -0.2999
     10 H         140.6429  137.7697  165.3949 H       1  UNL1        0.1498
     11 C         140.0048  139.9789  167.5893 C.ar    1  UNL1        0.1443
     12 C         139.6571  140.1408  169.0394 C.ar    1  UNL1        0.0520
     13 C         140.7340  140.0712  170.0811 C.ar    1  UNL1        0.0553
     14 N         140.3863  140.2331  171.5313 N.pl3   1  UNL1       -0.3563
     15 C         142.1587  139.8397  169.6728 C.ar    1  UNL1        0.0709
     16 CL        143.2356  139.7701  170.7146 Cl      1  UNL1       -0.0810
     17 C         142.5063  139.6778  168.2227 C.ar    1  UNL1        0.0202
     18 C         141.4294  139.7473  167.1809 C.ar    1  UNL1        0.0882
     19 H         139.4512  140.3850  171.7993 H       1  UNL1        0.1424
     20 H         141.0931  140.1874  172.2151 H       1  UNL1        0.1424
     21 C         137.9524  138.9185  166.4004 C.3     1  UNL1        0.2525
     22 O         138.9278  140.0484  166.5475 O.3     1  UNL1       -0.4712
     23 O         139.0505  138.2022  162.9041 O.3     1  UNL1       -0.3505
     24 C         137.9700  138.3709  161.8775 C.3     1  UNL1        0.1741
     25 C         142.6209  137.7772  159.1529 C.3     1  UNL1        0.0818
     26 C         142.5270  138.9508  158.2235 C.3     1  UNL1        0.1026
     27 C         143.2785  140.2123  158.5301 C.2     1  UNL1        0.2270
     28 O         144.6903  140.3794  158.0516 O.2     1  UNL1       -0.2748
     29 N         142.6183  141.3066  159.3153 N.am    1  UNL1       -0.2795
     30 C         141.2064  141.1395  159.7938 C.3     1  UNL1        0.0934
     31 C         140.5462  142.2338  160.5790 C.3     1  UNL1        0.0219
     32 C         141.2977  143.4953  160.8856 C.3     1  UNL1        0.0078
     33 C         142.7094  143.6624  160.4071 C.3     1  UNL1        0.0219
     34 C         143.3697  142.5681  159.6219 C.3     1  UNL1        0.0934
     35 C         140.6374  144.5896  161.6707 C.3     1  UNL1        0.0265
     36 C         140.2315  144.3509  163.0949 C.ar    1  UNL1       -0.0222
     37 C         141.1204  143.5564  164.0051 C.ar    1  UNL1       -0.0043
     38 C         140.7145  143.3177  165.4292 C.ar    1  UNL1       -0.0003
     39 C         139.4195  143.8735  165.9432 C.ar    1  UNL1       -0.0000
     40 C         138.5305  144.6680  165.0330 C.ar    1  UNL1       -0.0003
     41 C         138.9365  144.9067  163.6089 C.ar    1  UNL1       -0.0043
@<TRIPOS>BOND
     1    21    22    1
     2    22    11    1
     3    11    12   ar
     4    12    13   ar
     5    13    14    1
     6    13    15   ar
     7    15    16    1
     8    15    17   ar
     9    17    18   ar
    10    18     7    1
    11     7     8    2
    12     7     9   am
    13     1     9    1
    14     1     2    1
    15     2     3    1
    16     3     4    1
    17     4    25    1
    18    25    26    1
    19    26    27    1
    20    27    28    2
    21    27    29   am
    22    29    30    1
    23    30    31    1
    24    31    32    1
    25    32    35    1
    26    35    36    1
    27    36    37   ar
    28    37    38   ar
    29    38    39   ar
    30    39    40   ar
    31    40    41   ar
    32    32    33    1
    33    33    34    1
    34     4     5    1
    35     5     6    1
    36     6    23    1
    37    23    24    1
    38    18    11   ar
    39     6     1    1
    40    34    29    1
    41    41    36   ar
    42    14    19    1
    43    14    20    1
    44     9    10    1
@<TRIPOS>MOLECULE
*****
 41 44 0 0 0
SMALL
GASTEIGER

@<TRIPOS>ATOM
      1 C         139.7899  143.6114  163.8542 C.3     1  UNL1        0.1017
      2 C         140.6007  144.8632  163.6944 C.3     1  UNL1        0.0394
      3 C         140.7752  145.4754  162.3361 C.3     1  UNL1        0.0740
      4 N         140.1390  144.8358  161.1378 N.3     1  UNL1       -0.2701
      5 C         139.3282  143.5840  161.2977 C.3     1  UNL1        0.1037
      6 C         139.1537  142.9718  162.6558 C.3     1  UNL1        0.1490
      7 C         140.7098  142.1607  165.8034 C.2     1  UNL1        0.2488
      8 O         141.9787  141.9344  165.0362 O.2     1  UNL1       -0.2700
      9 N         139.6154  142.9992  165.2124 N.am    1  UNL1       -0.2999
     10 H         138.7826  143.1477  165.7160 H       1  UNL1        0.1498
     11 C         139.5417  140.4431  167.3640 C.ar    1  UNL1        0.1443
     12 C         139.3672  139.8309  168.7222 C.ar    1  UNL1        0.0520
     13 C         140.1861  140.3242  169.8781 C.ar    1  UNL1        0.0553
     14 N         140.0115  139.7120  171.2363 N.pl3   1  UNL1       -0.3563
     15 C         141.1796  141.4296  169.6757 C.ar    1  UNL1        0.0709
     16 CL        141.9986  141.9229  170.8316 Cl      1  UNL1       -0.0810
     17 C         141.3541  142.0418  168.3175 C.ar    1  UNL1        0.0202
     18 C         140.5352  141.5485  167.1617 C.ar    1  UNL1        0.0882
     19 H         139.3595  138.9864  171.3691 H       1  UNL1        0.1424
     20 H         140.5490  140.0357  171.9950 H       1  UNL1        0.1424
     21 C         138.0674  138.6022  166.2743 C.3     1  UNL1        0.2525
     22 O         138.7228  139.9498  166.2081 O.3     1  UNL1       -0.4712
     23 O         138.3429  141.7200  162.8157 O.3     1  UNL1       -0.3505
     24 C         139.0063  140.3786  162.7136 C.3     1  UNL1        0.1741
     25 C         140.3135  145.4480  159.7796 C.3     1  UNL1        0.0818
     26 C         141.4857  145.0610  158.9275 C.3     1  UNL1        0.1026
     27 C         141.6082  143.6572  158.4133 C.2     1  UNL1        0.2270
     28 O         141.0732  143.3060  157.0567 O.2     1  UNL1       -0.2748
     29 N         142.2657  142.6046  159.2558 N.am    1  UNL1       -0.2795
     30 C         142.8007  142.9559  160.6124 C.3     1  UNL1        0.0934
     31 C         143.4582  141.9033  161.4549 C.3     1  UNL1        0.0219
     32 C         143.5806  140.4994  160.9407 C.3     1  UNL1        0.0078
     33 C         143.0456  140.1482  159.5841 C.3     1  UNL1        0.0219
     34 C         142.3881  141.2008  158.7417 C.3     1  UNL1        0.0934
     35 C         144.2381  139.4468  161.7832 C.3     1  UNL1        0.0265
     36 C         143.6844  139.1162  163.1375 C.ar    1  UNL1       -0.0222
     37 C         144.5336  139.2998  164.3603 C.ar    1  UNL1       -0.0043
     38 C         143.9799  138.9691  165.7145 C.ar    1  UNL1       -0.0003
     39 C         142.5770  138.4548  165.8460 C.ar    1  UNL1       -0.0000
     40 C         141.7278  138.2711  164.6233 C.ar    1  UNL1       -0.0003
     41 C         142.2815  138.6018  163.2691 C.ar    1  UNL1       -0.0043
@<TRIPOS>BOND
     1    21    22    1
     2    22    11    1
     3    11    12   ar
     4    12    13   ar
     5    13    14    1
     6    13    15   ar
     7    15    16    1
     8    15    17   ar
     9    17    18   ar
    10    18     7    1
    11     7     8    2
    12     7     9   am
    13     1     9    1
    14     1     2    1
    15     2     3    1
    16     3     4    1
    17     4    25    1
    18    25    26    1
    19    26    27    1
    20    27    28    2
    21    27    29   am
    22    29    30    1
    23    30    31    1
    24    31    32    1
    25    32    35    1
    26    35    36    1
    27    36    37   ar
    28    37    38   ar
    29    38    39   ar
    30    39    40   ar
    31    40    41   ar
    32    32    33    1
    33    33    34    1
    34     4     5    1
    35     5     6    1
    36     6    23    1
    37    23    24    1
    38    18    11   ar
    39     6     1    1
    40    34    29    1
    41    41    36   ar
    42    14    19    1
    43    14    20    1
    44     9    10    1
@<TRIPOS>MOLECULE
*****
 41 44 0 0 0
SMALL
GASTEIGER

@<TRIPOS>ATOM
      1 C         142.2438  138.7362  164.4883 C.3     1  UNL1        0.1017
      2 C         141.2167  137.9673  163.7113 C.3     1  UNL1        0.0394
      3 C         141.5032  137.5475  162.3000 C.3     1  UNL1        0.0740
      4 N         142.8168  137.8967  161.6657 N.3     1  UNL1       -0.2701
      5 C         143.8440  138.6656  162.4426 C.3     1  UNL1        0.1037
      6 C         143.5575  139.0854  163.8539 C.3     1  UNL1        0.1490
      7 C         141.3993  140.5203  166.1776 C.2     1  UNL1        0.2488
      8 O         141.1277  141.4648  165.0444 O.2     1  UNL1       -0.2700
      9 N         141.9574  139.1560  165.8995 N.am    1  UNL1       -0.2999
     10 H         142.1357  138.5361  166.6433 H       1  UNL1        0.1498
     11 C         139.9876  140.3013  168.3477 C.ar    1  UNL1        0.1443
     12 C         139.7012  140.7211  169.7589 C.ar    1  UNL1        0.0520
     13 C         140.5401  141.7796  170.4115 C.ar    1  UNL1        0.0553
     14 N         140.2536  142.1993  171.8228 N.pl3   1  UNL1       -0.3563
     15 C         141.6654  142.4183  169.6528 C.ar    1  UNL1        0.0709
     16 CL        142.5043  143.4768  170.3053 Cl      1  UNL1       -0.0810
     17 C         141.9518  141.9985  168.2415 C.ar    1  UNL1        0.0202
     18 C         141.1129  140.9400  167.5890 C.ar    1  UNL1        0.0882
     19 H         139.5150  141.7801  172.3208 H       1  UNL1        0.1424
     20 H         140.8042  142.8941  172.2512 H       1  UNL1        0.1424
     21 C         138.2571  139.5974  166.5422 C.3     1  UNL1        0.2525
     22 O         139.1487  139.2428  167.6951 O.3     1  UNL1       -0.4712
     23 O         144.5847  139.8544  164.6308 O.3     1  UNL1       -0.3505
     24 C         145.4110  140.9036  163.9479 C.3     1  UNL1        0.1741
     25 C         143.1032  137.4769  160.2544 C.3     1  UNL1        0.0818
     26 C         142.6110  138.3112  159.1092 C.3     1  UNL1        0.1026
     27 C         143.2357  139.6464  158.8310 C.2     1  UNL1        0.2270
     28 O         144.3772  139.7534  157.8638 O.2     1  UNL1       -0.2748
     29 N         142.7189  140.8744  159.5201 N.am    1  UNL1       -0.2795
     30 C         141.5774  140.7673  160.4874 C.3     1  UNL1        0.0934
     31 C         141.0605  141.9953  161.1765 C.3     1  UNL1        0.0219
     32 C         141.6852  143.3304  160.8984 C.3     1  UNL1        0.0078
     33 C         142.8267  143.4374  159.9311 C.3     1  UNL1        0.0219
     34 C         143.3435  142.2094  159.2420 C.3     1  UNL1        0.0934
     35 C         141.1684  144.5584  161.5875 C.3     1  UNL1        0.0265
     36 C         140.0912  144.4392  162.6246 C.ar    1  UNL1       -0.0222
     37 C         138.6982  144.0586  162.2188 C.ar    1  UNL1       -0.0043
     38 C         137.6212  143.9394  163.2559 C.ar    1  UNL1       -0.0003
     39 C         137.9371  144.2008  164.6988 C.ar    1  UNL1       -0.0000
     40 C         139.3300  144.5814  165.1046 C.ar    1  UNL1       -0.0003
     41 C         140.4071  144.7006  164.0675 C.ar    1  UNL1       -0.0043
@<TRIPOS>BOND
     1    21    22    1
     2    22    11    1
     3    11    12   ar
     4    12    13   ar
     5    13    14    1
     6    13    15   ar
     7    15    16    1
     8    15    17   ar
     9    17    18   ar
    10    18     7    1
    11     7     8    2
    12     7     9   am
    13     1     9    1
    14     1     2    1
    15     2     3    1
    16     3     4    1
    17     4    25    1
    18    25    26    1
    19    26    27    1
    20    27    28    2
    21    27    29   am
    22    29    30    1
    23    30    31    1
    24    31    32    1
    25    32    35    1
    26    35    36    1
    27    36    37   ar
    28    37    38   ar
    29    38    39   ar
    30    39    40   ar
    31    40    41   ar
    32    32    33    1
    33    33    34    1
    34     4     5    1
    35     5     6    1
    36     6    23    1
    37    23    24    1
    38    18    11   ar
    39     6     1    1
    40    34    29    1
    41    41    36   ar
    42    14    19    1
    43    14    20    1
    44     9    10    1
@<TRIPOS>MOLECULE
*****
 41 44 0 0 0
SMALL
GASTEIGER

@<TRIPOS>ATOM
      1 C         142.1591  138.8609  164.2339 C.3     1  UNL1        0.1017
      2 C         141.1164  138.1101  163.4600 C.3     1  UNL1        0.0394
      3 C         141.4256  137.6015  162.0831 C.3     1  UNL1        0.0740
      4 N         142.7775  137.8438  161.4801 N.3     1  UNL1       -0.2701
      5 C         143.8202  138.5947  162.2539 C.3     1  UNL1        0.1037
      6 C         143.5111  139.1033  163.6308 C.3     1  UNL1        0.1490
      7 C         140.8996  140.5159  165.7910 C.2     1  UNL1        0.2488
      8 O         140.2583  141.1537  164.5944 O.2     1  UNL1       -0.2700
      9 N         141.8500  139.3695  165.6107 N.am    1  UNL1       -0.2999
     10 H         142.2709  138.9509  166.3961 H       1  UNL1        0.1498
     11 C         141.2300  142.2881  167.6619 C.ar    1  UNL1        0.1443
     12 C         140.9209  142.7966  169.0387 C.ar    1  UNL1        0.0520
     13 C         139.9722  142.0414  169.9217 C.ar    1  UNL1        0.0553
     14 N         139.6631  142.5499  171.2986 N.pl3   1  UNL1       -0.3563
     15 C         139.3326  140.7777  169.4278 C.ar    1  UNL1        0.0709
     16 CL        138.3839  140.0225  170.3107 Cl      1  UNL1       -0.0810
     17 C         139.6417  140.2692  168.0509 C.ar    1  UNL1        0.0202
     18 C         140.5904  141.0244  167.1679 C.ar    1  UNL1        0.0882
     19 H         140.0829  143.3793  171.6228 H       1  UNL1        0.1424
     20 H         139.0404  142.0542  171.8782 H       1  UNL1        0.1424
     21 C         143.5930  142.5697  166.6193 C.3     1  UNL1        0.2525
     22 O         142.1787  143.0433  166.7789 O.3     1  UNL1       -0.4712
     23 O         144.5538  139.8542  164.4046 O.3     1  UNL1       -0.3505
     24 C         145.4318  140.8511  163.7080 C.3     1  UNL1        0.1741
     25 C         143.0866  137.3353  160.1032 C.3     1  UNL1        0.0818
     26 C         142.6796  138.1333  158.9000 C.3     1  UNL1        0.1026
     27 C         143.1476  139.5502  158.7465 C.2     1  UNL1        0.2270
     28 O         144.4668  139.8377  158.0931 O.2     1  UNL1       -0.2748
     29 N         142.2962  140.6795  159.2463 N.am    1  UNL1       -0.2795
     30 C         140.9769  140.3919  159.8997 C.3     1  UNL1        0.0934
     31 C         140.1256  141.5212  160.3996 C.3     1  UNL1        0.0219
     32 C         140.5935  142.9381  160.2460 C.3     1  UNL1        0.0078
     33 C         141.9127  143.2256  159.5926 C.3     1  UNL1        0.0219
     34 C         142.7641  142.0963  159.0928 C.3     1  UNL1        0.0934
     35 C         139.7421  144.0674  160.7458 C.3     1  UNL1        0.0265
     36 C         139.3593  144.1337  162.1947 C.ar    1  UNL1       -0.0222
     37 C         140.3282  144.6775  163.2024 C.ar    1  UNL1       -0.0043
     38 C         139.9453  144.7437  164.6511 C.ar    1  UNL1       -0.0003
     39 C         138.5935  144.2662  165.0922 C.ar    1  UNL1       -0.0000
     40 C         137.6246  143.7225  164.0846 C.ar    1  UNL1       -0.0003
     41 C         138.0075  143.6562  162.6358 C.ar    1  UNL1       -0.0043
@<TRIPOS>BOND
     1    21    22    1
     2    22    11    1
     3    11    12   ar
     4    12    13   ar
     5    13    14    1
     6    13    15   ar
     7    15    16    1
     8    15    17   ar
     9    17    18   ar
    10    18     7    1
    11     7     8    2
    12     7     9   am
    13     1     9    1
    14     1     2    1
    15     2     3    1
    16     3     4    1
    17     4    25    1
    18    25    26    1
    19    26    27    1
    20    27    28    2
    21    27    29   am
    22    29    30    1
    23    30    31    1
    24    31    32    1
    25    32    35    1
    26    35    36    1
    27    36    37   ar
    28    37    38   ar
    29    38    39   ar
    30    39    40   ar
    31    40    41   ar
    32    32    33    1
    33    33    34    1
    34     4     5    1
    35     5     6    1
    36     6    23    1
    37    23    24    1
    38    18    11   ar
    39     6     1    1
    40    34    29    1
    41    41    36   ar
    42    14    19    1
    43    14    20    1
    44     9    10    1
@<TRIPOS>MOLECULE
*****
 41 44 0 0 0
SMALL
GASTEIGER

@<TRIPOS>ATOM
      1 C         141.9041  138.7713  164.2652 C.3     1  UNL1        0.1017
      2 C         143.3154  138.9591  163.7929 C.3     1  UNL1        0.0394
      3 C         143.7112  138.5131  162.4164 C.3     1  UNL1        0.0740
      4 N         142.6957  137.8794  161.5124 N.3     1  UNL1       -0.2701
      5 C         141.2845  137.6916  161.9848 C.3     1  UNL1        0.1037
      6 C         140.8887  138.1375  163.3612 C.3     1  UNL1        0.1490
      7 C         140.8017  140.5266  165.8315 C.2     1  UNL1        0.2488
      8 O         140.4908  141.3901  164.6451 O.2     1  UNL1       -0.2700
      9 N         141.5083  139.2172  165.6416 N.am    1  UNL1       -0.2999
     10 H         141.7124  138.6505  166.4203 H       1  UNL1        0.1498
     11 C         139.5192  140.1051  168.0514 C.ar    1  UNL1        0.1443
     12 C         139.1234  140.5511  169.4277 C.ar    1  UNL1        0.0520
     13 C         139.6143  141.8644  169.9607 C.ar    1  UNL1        0.0553
     14 N         139.2185  142.3104  171.3372 N.pl3   1  UNL1       -0.3563
     15 C         140.5010  142.7319  169.1173 C.ar    1  UNL1        0.0709
     16 CL        140.9919  144.0452  169.6503 Cl      1  UNL1       -0.0810
     17 C         140.8968  142.2859  167.7410 C.ar    1  UNL1        0.0202
     18 C         140.4059  140.9726  167.2080 C.ar    1  UNL1        0.0882
     19 H         138.6366  141.7410  171.8907 H       1  UNL1        0.1424
     20 H         139.5407  143.1724  171.6870 H       1  UNL1        0.1424
     21 C         137.6343  138.6760  166.9769 C.3     1  UNL1        0.2525
     22 O         139.0283  138.7918  167.5184 O.3     1  UNL1       -0.4712
     23 O         139.4775  137.9497  163.8336 O.3     1  UNL1       -0.3505
     24 C         138.3816  138.8148  163.2853 C.3     1  UNL1        0.1741
     25 C         143.0915  137.4334  160.1361 C.3     1  UNL1        0.0818
     26 C         142.8537  138.3324  158.9590 C.3     1  UNL1        0.1026
     27 C         141.4701  138.8307  158.6634 C.2     1  UNL1        0.2270
     28 O         140.5528  138.0246  157.7923 O.2     1  UNL1       -0.2748
     29 N         141.0038  140.1351  159.2388 N.am    1  UNL1       -0.2795
     30 C         141.9212  140.9412  160.1099 C.3     1  UNL1        0.0934
     31 C         141.4549  142.2456  160.6853 C.3     1  UNL1        0.0219
     32 C         140.0712  142.7439  160.3896 C.3     1  UNL1        0.0078
     33 C         139.1540  141.9378  159.5186 C.3     1  UNL1        0.0219
     34 C         139.6203  140.6334  158.9432 C.3     1  UNL1        0.0934
     35 C         139.6050  144.0483  160.9651 C.3     1  UNL1        0.0265
     36 C         139.3351  144.1654  162.4360 C.ar    1  UNL1       -0.0222
     37 C         140.4178  144.6343  163.3622 C.ar    1  UNL1       -0.0043
     38 C         140.1478  144.7514  164.8330 C.ar    1  UNL1       -0.0003
     39 C         138.7952  144.3995  165.3776 C.ar    1  UNL1       -0.0000
     40 C         137.7125  143.9306  164.4515 C.ar    1  UNL1       -0.0003
     41 C         137.9824  143.8135  162.9806 C.ar    1  UNL1       -0.0043
@<TRIPOS>BOND
     1    21    22    1
     2    22    11    1
     3    11    12   ar
     4    12    13   ar
     5    13    14    1
     6    13    15   ar
     7    15    16    1
     8    15    17   ar
     9    17    18   ar
    10    18     7    1
    11     7     8    2
    12     7     9   am
    13     1     9    1
    14     1     2    1
    15     2     3    1
    16     3     4    1
    17     4    25    1
    18    25    26    1
    19    26    27    1
    20    27    28    2
    21    27    29   am
    22    29    30    1
    23    30    31    1
    24    31    32    1
    25    32    35    1
    26    35    36    1
    27    36    37   ar
    28    37    38   ar
    29    38    39   ar
    30    39    40   ar
    31    40    41   ar
    32    32    33    1
    33    33    34    1
    34     4     5    1
    35     5     6    1
    36     6    23    1
    37    23    24    1
    38    18    11   ar
    39     6     1    1
    40    34    29    1
    41    41    36   ar
    42    14    19    1
    43    14    20    1
    44     9    10    1
@<TRIPOS>MOLECULE
*****
 41 44 0 0 0
SMALL
GASTEIGER

@<TRIPOS>ATOM
      1 C         138.2515  140.6047  163.1593 C.3     1  UNL1        0.1017
      2 C         138.2772  139.2689  162.4773 C.3     1  UNL1        0.0394
      3 C         138.1576  139.1867  160.9843 C.3     1  UNL1        0.0740
      4 N         138.0123  140.4402  160.1734 N.3     1  UNL1       -0.2701
      5 C         137.9865  141.7759  160.8554 C.3     1  UNL1        0.1037
      6 C         138.1061  141.8582  162.3483 C.3     1  UNL1        0.1490
      7 C         139.7015  140.9720  165.2836 C.2     1  UNL1        0.2488
      8 O         140.9124  141.1748  164.4219 O.2     1  UNL1       -0.2700
      9 N         138.3710  140.6869  164.6523 N.am    1  UNL1       -0.2999
     10 H         137.5762  140.5538  165.2178 H       1  UNL1        0.1498
     11 C         139.3486  139.9153  167.6307 C.ar    1  UNL1        0.1443
     12 C         139.4681  139.9976  169.1236 C.ar    1  UNL1        0.0520
     13 C         140.0601  141.2188  169.7624 C.ar    1  UNL1        0.0553
     14 N         140.1796  141.3011  171.2555 N.pl3   1  UNL1       -0.3563
     15 C         140.5326  142.3578  168.9083 C.ar    1  UNL1        0.0709
     16 CL        141.1246  143.5790  169.5472 Cl      1  UNL1       -0.0810
     17 C         140.4130  142.2755  167.4154 C.ar    1  UNL1        0.0202
     18 C         139.8210  141.0542  166.7766 C.ar    1  UNL1        0.0882
     19 H         139.8695  140.5535  171.8160 H       1  UNL1        0.1424
     20 H         140.5682  142.1026  171.6748 H       1  UNL1        0.1424
     21 C         137.3525  138.2815  167.3207 C.3     1  UNL1        0.2525
     22 O         138.7566  138.6940  166.9918 O.3     1  UNL1       -0.4712
     23 O         138.0803  143.1939  163.0304 O.3     1  UNL1       -0.3505
     24 C         139.3213  144.0350  163.0795 C.3     1  UNL1        0.1741
     25 C         137.8927  140.3579  158.6805 C.3     1  UNL1        0.0818
     26 C         139.1270  140.3581  157.8281 C.3     1  UNL1        0.1026
     27 C         140.3388  139.5882  158.2627 C.2     1  UNL1        0.2270
     28 O         140.4282  138.1154  157.9930 O.2     1  UNL1       -0.2748
     29 N         141.4612  140.2912  158.9670 N.am    1  UNL1       -0.2795
     30 C         141.3717  141.7641  159.2367 C.3     1  UNL1        0.0934
     31 C         142.4941  142.4670  159.9411 C.3     1  UNL1        0.0219
     32 C         143.7059  141.6971  160.3757 C.3     1  UNL1        0.0078
     33 C         143.7953  140.2243  160.1060 C.3     1  UNL1        0.0219
     34 C         142.6729  139.5213  159.4017 C.3     1  UNL1        0.0934
     35 C         144.8283  142.4001  161.0801 C.3     1  UNL1        0.0265
     36 C         144.5987  143.0159  162.4285 C.ar    1  UNL1       -0.0222
     37 C         143.9808  144.3785  162.5353 C.ar    1  UNL1       -0.0043
     38 C         143.7512  144.9943  163.8837 C.ar    1  UNL1       -0.0003
     39 C         144.1397  144.2474  165.1252 C.ar    1  UNL1       -0.0000
     40 C         144.7576  142.8849  165.0184 C.ar    1  UNL1       -0.0003
     41 C         144.9872  142.2691  163.6700 C.ar    1  UNL1       -0.0043
@<TRIPOS>BOND
     1    21    22    1
     2    22    11    1
     3    11    12   ar
     4    12    13   ar
     5    13    14    1
     6    13    15   ar
     7    15    16    1
     8    15    17   ar
     9    17    18   ar
    10    18     7    1
    11     7     8    2
    12     7     9   am
    13     1     9    1
    14     1     2    1
    15     2     3    1
    16     3     4    1
    17     4    25    1
    18    25    26    1
    19    26    27    1
    20    27    28    2
    21    27    29   am
    22    29    30    1
    23    30    31    1
    24    31    32    1
    25    32    35    1
    26    35    36    1
    27    36    37   ar
    28    37    38   ar
    29    38    39   ar
    30    39    40   ar
    31    40    41   ar
    32    32    33    1
    33    33    34    1
    34     4     5    1
    35     5     6    1
    36     6    23    1
    37    23    24    1
    38    18    11   ar
    39     6     1    1
    40    34    29    1
    41    41    36   ar
    42    14    19    1
    43    14    20    1
    44     9    10    1
