@<TRIPOS>MOLECULE
*****
 32 35 0 0 0
SMALL
GASTEIGER

@<TRIPOS>ATOM
      1 N         141.0606  138.3339  157.2548 N.am    1  UNL1       -0.2113
      2 C         142.4898  138.1456  157.6693 C.2     1  UNL1        0.2550
      3 O         143.6268  137.7664  156.7674 O.2     1  UNL1       -0.2725
      4 C         142.5824  138.4031  159.1442 C.3     1  UNL1        0.2059
      5 N         141.2105  138.7506  159.6411 N.am    1  UNL1       -0.1551
      6 C         140.2699  138.7078  158.4734 C.2     1  UNL1        0.3324
      7 O         138.7972  138.9895  158.5167 O.2     1  UNL1       -0.2501
      8 N         140.8434  139.0825  161.0571 N.2     1  UNL1       -0.1692
      9 C         140.1930  138.0469  161.9257 C.2     1  UNL1        0.1553
     10 C         139.8260  138.3788  163.3417 C.ar    1  UNL1        0.1660
     11 C         138.9101  137.5841  164.2246 C.ar    1  UNL1        0.0423
     12 C         138.8284  138.2779  165.5520 C.ar    1  UNL1        0.0407
     13 C         139.6940  139.5014  165.4896 C.ar    1  UNL1        0.1454
     14 O         140.3105  139.5638  164.1235 O.2     1  UNL1       -0.4519
     15 C         139.9058  140.4891  166.5984 C.ar    1  UNL1        0.0346
     16 C         140.3319  141.8921  166.2819 C.ar    1  UNL1        0.0039
     17 C         140.5437  142.8797  167.3908 C.ar    1  UNL1        0.0115
     18 C         140.3294  142.4645  168.8162 C.ar    1  UNL1        0.0577
     19 CL        140.5412  143.4522  169.9250 Cl      1  UNL1       -0.0822
     20 C         139.9032  141.0616  169.1327 C.ar    1  UNL1        0.0115
     21 C         139.6914  140.0738  168.0238 C.ar    1  UNL1        0.0039
     22 C         140.5174  138.1761  155.8655 C.3     1  UNL1        0.1026
     23 C         140.2656  136.8056  155.3099 C.3     1  UNL1        0.0235
     24 C         141.3098  136.1342  154.4679 C.3     1  UNL1        0.0191
     25 C         141.4165  134.6381  154.4572 C.3     1  UNL1        0.0722
     26 C         145.4176  131.8903  157.9844 C.3     1  UNL1        0.0897
     27 N         144.4173  132.5772  157.1026 N.3     1  UNL1       -0.2691
     28 C         143.7698  133.8525  157.5547 C.3     1  UNL1        0.0897
     29 C         142.7696  134.5395  156.6729 C.3     1  UNL1        0.0897
     30 N         142.4168  133.9512  155.3390 N.3     1  UNL1       -0.2703
     31 C         143.0643  132.6759  154.8868 C.3     1  UNL1        0.0897
     32 C         144.0645  131.9890  155.7686 C.3     1  UNL1        0.0897
@<TRIPOS>BOND
     1    26    27    1
     2    27    28    1
     3    28    29    1
     4    29    30    1
     5    30    25    1
     6    25    24    1
     7    24    23    1
     8    23    22    1
     9    22     1    1
    10     1     2   am
    11     2     3    2
    12     2     4    1
    13     4     5    1
    14     5     8    1
    15     8     9    2
    16     9    10    1
    17    10    11   ar
    18    11    12   ar
    19    12    13   ar
    20    13    15    1
    21    15    16   ar
    22    16    17   ar
    23    17    18   ar
    24    18    19    1
    25    18    20   ar
    26    20    21   ar
    27    13    14   ar
    28     5     6   am
    29     6     7    2
    30    30    31    1
    31    31    32    1
    32    32    27    1
    33     6     1   am
    34    14    10   ar
    35    21    15   ar
@<TRIPOS>MOLECULE
*****
 32 35 0 0 0
SMALL
GASTEIGER

@<TRIPOS>ATOM
      1 N         144.5628  141.6073  162.8712 N.am    1  UNL1       -0.2113
      2 C         144.3310  142.5424  161.7215 C.2     1  UNL1        0.2550
      3 O         144.4209  144.0389  161.7702 O.2     1  UNL1       -0.2725
      4 C         143.9936  141.7182  160.5144 C.3     1  UNL1        0.2059
      5 N         144.0169  140.2738  160.9182 N.am    1  UNL1       -0.1551
      6 C         144.3687  140.2053  162.3747 C.2     1  UNL1        0.3324
      7 O         144.5027  138.9542  163.1914 O.2     1  UNL1       -0.2501
      8 N         143.7374  139.1034  160.0227 N.2     1  UNL1       -0.1692
      9 C         142.7417  139.2327  158.9082 C.2     1  UNL1        0.1553
     10 C         142.4622  138.0623  158.0127 C.ar    1  UNL1        0.1660
     11 C         141.3035  137.9309  157.0692 C.ar    1  UNL1        0.0423
     12 C         141.4175  136.6052  156.3768 C.ar    1  UNL1        0.0407
     13 C         142.6467  135.9172  156.8924 C.ar    1  UNL1        0.1454
     14 O         143.2924  136.8177  157.9034 O.2     1  UNL1       -0.4519
     15 C         143.1431  134.5659  156.4709 C.ar    1  UNL1        0.0346
     16 C         142.7576  134.0092  155.1324 C.ar    1  UNL1        0.0039
     17 C         143.2539  132.6580  154.7110 C.ar    1  UNL1        0.0115
     18 C         144.1358  131.8633  155.6279 C.ar    1  UNL1        0.0577
     19 CL        144.6322  130.5120  155.2064 Cl      1  UNL1       -0.0822
     20 C         144.5213  132.4200  156.9664 C.ar    1  UNL1        0.0115
     21 C         144.0250  133.7713  157.3879 C.ar    1  UNL1        0.0039
     22 C         144.9252  142.0046  164.2715 C.3     1  UNL1        0.1026
     23 C         143.9573  142.7952  165.1011 C.3     1  UNL1        0.0235
     24 C         142.9486  142.0866  165.9558 C.3     1  UNL1        0.0191
     25 C         142.8697  140.5888  165.9370 C.3     1  UNL1        0.0722
     26 C         138.6606  137.8473  162.6556 C.3     1  UNL1        0.0897
     27 N         139.7129  138.5327  163.4759 N.3     1  UNL1       -0.2691
     28 C         140.3825  137.8000  164.6005 C.3     1  UNL1        0.0897
     29 C         141.4348  138.4854  165.4208 C.3     1  UNL1        0.0897
     30 N         141.8174  139.9035  165.1167 N.3     1  UNL1       -0.2703
     31 C         141.1477  140.6362  163.9921 C.3     1  UNL1        0.0897
     32 C         140.0955  139.9508  163.1718 C.3     1  UNL1        0.0897
@<TRIPOS>BOND
     1    26    27    1
     2    27    28    1
     3    28    29    1
     4    29    30    1
     5    30    25    1
     6    25    24    1
     7    24    23    1
     8    23    22    1
     9    22     1    1
    10     1     2   am
    11     2     3    2
    12     2     4    1
    13     4     5    1
    14     5     8    1
    15     8     9    2
    16     9    10    1
    17    10    11   ar
    18    11    12   ar
    19    12    13   ar
    20    13    15    1
    21    15    16   ar
    22    16    17   ar
    23    17    18   ar
    24    18    19    1
    25    18    20   ar
    26    20    21   ar
    27    13    14   ar
    28     5     6   am
    29     6     7    2
    30    30    31    1
    31    31    32    1
    32    32    27    1
    33     6     1   am
    34    14    10   ar
    35    21    15   ar
@<TRIPOS>MOLECULE
*****
 32 35 0 0 0
SMALL
GASTEIGER

@<TRIPOS>ATOM
      1 N         144.1238  143.4357  162.3170 N.am    1  UNL1       -0.2113
      2 C         144.7341  142.3225  163.1160 C.2     1  UNL1        0.2550
      3 O         145.1899  142.4083  164.5425 O.2     1  UNL1       -0.2725
      4 C         144.8085  141.1085  162.2382 C.3     1  UNL1        0.2059
      5 N         144.2443  141.4714  160.8965 N.am    1  UNL1       -0.1551
      6 C         143.8211  142.9096  160.9453 C.2     1  UNL1        0.3324
      7 O         143.2036  143.6856  159.8198 O.2     1  UNL1       -0.2501
      8 N         144.1242  140.5566  159.7138 N.2     1  UNL1       -0.1692
      9 C         142.9852  139.5841  159.6305 C.2     1  UNL1        0.1553
     10 C         142.8652  138.6693  158.4478 C.ar    1  UNL1        0.1660
     11 C         142.8208  139.0901  157.0087 C.ar    1  UNL1        0.0423
     12 C         142.6967  137.8540  156.1680 C.ar    1  UNL1        0.0407
     13 C         142.6643  136.6693  157.0876 C.ar    1  UNL1        0.1454
     14 O         142.7685  137.1733  158.4966 O.2     1  UNL1       -0.4519
     15 C         142.5482  135.2330  156.6712 C.ar    1  UNL1        0.0346
     16 C         143.3276  134.1764  157.3967 C.ar    1  UNL1        0.0039
     17 C         143.2114  132.7401  156.9802 C.ar    1  UNL1        0.0115
     18 C         142.3159  132.3602  155.8385 C.ar    1  UNL1        0.0577
     19 CL        142.1997  130.9239  155.4221 Cl      1  UNL1       -0.0822
     20 C         141.5364  133.4167  155.1130 C.ar    1  UNL1        0.0115
     21 C         141.6526  134.8531  155.5294 C.ar    1  UNL1        0.0039
     22 C         143.8622  144.8301  162.8041 C.3     1  UNL1        0.1026
     23 C         142.9996  145.0535  164.0108 C.3     1  UNL1        0.0235
     24 C         141.5100  144.9121  163.9044 C.3     1  UNL1        0.0191
     25 C         140.8112  143.7874  164.6090 C.3     1  UNL1        0.0722
     26 C         142.1489  138.0999  163.2439 C.3     1  UNL1        0.0897
     27 N         141.8144  139.5218  163.5852 N.3     1  UNL1       -0.2691
     28 C         142.1557  140.0681  164.9398 C.3     1  UNL1        0.0897
     29 C         141.8213  141.4900  165.2811 C.3     1  UNL1        0.0897
     30 N         141.1456  142.3655  164.2678 N.3     1  UNL1       -0.2703
     31 C         140.8043  141.8192  162.9132 C.3     1  UNL1        0.0897
     32 C         141.1387  140.3973  162.5719 C.3     1  UNL1        0.0897
@<TRIPOS>BOND
     1    26    27    1
     2    27    28    1
     3    28    29    1
     4    29    30    1
     5    30    25    1
     6    25    24    1
     7    24    23    1
     8    23    22    1
     9    22     1    1
    10     1     2   am
    11     2     3    2
    12     2     4    1
    13     4     5    1
    14     5     8    1
    15     8     9    2
    16     9    10    1
    17    10    11   ar
    18    11    12   ar
    19    12    13   ar
    20    13    15    1
    21    15    16   ar
    22    16    17   ar
    23    17    18   ar
    24    18    19    1
    25    18    20   ar
    26    20    21   ar
    27    13    14   ar
    28     5     6   am
    29     6     7    2
    30    30    31    1
    31    31    32    1
    32    32    27    1
    33     6     1   am
    34    14    10   ar
    35    21    15   ar
@<TRIPOS>MOLECULE
*****
 32 35 0 0 0
SMALL
GASTEIGER

@<TRIPOS>ATOM
      1 N         142.5590  138.7611  164.2091 N.am    1  UNL1       -0.2113
      2 C         143.6943  139.6588  163.8152 C.2     1  UNL1        0.2550
      3 O         144.3222  140.7153  164.6752 O.2     1  UNL1       -0.2725
      4 C         144.0917  139.3145  162.4104 C.3     1  UNL1        0.2059
      5 N         143.2019  138.2040  161.9359 N.am    1  UNL1       -0.1551
      6 C         142.2546  137.8620  163.0476 C.2     1  UNL1        0.3324
      7 O         141.1899  136.8062  163.0052 O.2     1  UNL1       -0.2501
      8 N         143.2507  137.5503  160.5868 N.2     1  UNL1       -0.1692
      9 C         142.6909  138.2592  159.3893 C.2     1  UNL1        0.1553
     10 C         142.7397  137.6055  158.0401 C.ar    1  UNL1        0.1660
     11 C         142.6665  138.3081  156.7168 C.ar    1  UNL1        0.0423
     12 C         142.7518  137.2713  155.6362 C.ar    1  UNL1        0.0407
     13 C         142.8779  135.9279  156.2916 C.ar    1  UNL1        0.1454
     14 O         142.8704  136.1345  157.7773 O.2     1  UNL1       -0.4519
     15 C         142.9914  134.6095  155.5853 C.ar    1  UNL1        0.0346
     16 C         143.8226  133.5103  156.1779 C.ar    1  UNL1        0.0039
     17 C         143.9361  132.1920  155.4716 C.ar    1  UNL1        0.0115
     18 C         143.2186  131.9726  154.1728 C.ar    1  UNL1        0.0577
     19 CL        143.3322  130.6542  153.4665 Cl      1  UNL1       -0.0822
     20 C         142.3874  133.0717  153.5802 C.ar    1  UNL1        0.0115
     21 C         142.2738  134.3902  154.2864 C.ar    1  UNL1        0.0039
     22 C         141.8521  138.7623  165.5320 C.3     1  UNL1        0.1026
     23 C         141.1343  139.9944  165.9977 C.3     1  UNL1        0.0235
     24 C         139.9144  139.8702  166.8617 C.3     1  UNL1        0.0191
     25 C         138.6279  139.3693  166.2754 C.3     1  UNL1        0.0722
     26 C         137.5386  140.0447  160.4139 C.3     1  UNL1        0.0897
     27 N         137.8109  139.8758  161.8793 N.3     1  UNL1       -0.2691
     28 C         137.6588  141.0425  162.8097 C.3     1  UNL1        0.0897
     29 C         137.9311  140.8736  164.2751 C.3     1  UNL1        0.0897
     30 N         138.3556  139.5381  164.8100 N.3     1  UNL1       -0.2703
     31 C         138.5077  138.3715  163.8796 C.3     1  UNL1        0.0897
     32 C         138.2353  138.5403  162.4142 C.3     1  UNL1        0.0897
@<TRIPOS>BOND
     1    26    27    1
     2    27    28    1
     3    28    29    1
     4    29    30    1
     5    30    25    1
     6    25    24    1
     7    24    23    1
     8    23    22    1
     9    22     1    1
    10     1     2   am
    11     2     3    2
    12     2     4    1
    13     4     5    1
    14     5     8    1
    15     8     9    2
    16     9    10    1
    17    10    11   ar
    18    11    12   ar
    19    12    13   ar
    20    13    15    1
    21    15    16   ar
    22    16    17   ar
    23    17    18   ar
    24    18    19    1
    25    18    20   ar
    26    20    21   ar
    27    13    14   ar
    28     5     6   am
    29     6     7    2
    30    30    31    1
    31    31    32    1
    32    32    27    1
    33     6     1   am
    34    14    10   ar
    35    21    15   ar
@<TRIPOS>MOLECULE
*****
 32 35 0 0 0
SMALL
GASTEIGER

@<TRIPOS>ATOM
      1 N         140.9564  138.3835  157.1131 N.am    1  UNL1       -0.2113
      2 C         139.5631  138.8415  157.4278 C.2     1  UNL1        0.2550
      3 O         138.4759  139.1078  156.4293 O.2     1  UNL1       -0.2725
      4 C         139.4479  138.9864  158.9164 C.3     1  UNL1        0.2059
      5 N         140.7699  138.6179  159.5217 N.am    1  UNL1       -0.1551
      6 C         141.7022  138.2453  158.4072 C.2     1  UNL1        0.3324
      7 O         143.1297  137.8108  158.5600 O.2     1  UNL1       -0.2501
      8 N         141.1015  138.6215  160.9845 N.2     1  UNL1       -0.1692
      9 C         142.3256  139.3369  161.4743 C.2     1  UNL1        0.1553
     10 C         142.6572  139.3404  162.9371 C.ar    1  UNL1        0.1660
     11 C         144.0213  139.1533  163.5325 C.ar    1  UNL1        0.0423
     12 C         143.8901  139.2289  165.0248 C.ar    1  UNL1        0.0407
     13 C         142.4449  139.4627  165.3519 C.ar    1  UNL1        0.1454
     14 O         141.6830  139.5316  164.0616 O.2     1  UNL1       -0.4519
     15 C         141.8638  139.6030  166.7275 C.ar    1  UNL1        0.0346
     16 C         140.4161  139.9568  166.8977 C.ar    1  UNL1        0.0039
     17 C         139.8350  140.0971  168.2734 C.ar    1  UNL1        0.0115
     18 C         140.7016  139.8836  169.4790 C.ar    1  UNL1        0.0577
     19 CL        140.1204  140.0239  170.8547 Cl      1  UNL1       -0.0822
     20 C         142.1493  139.5298  169.3089 C.ar    1  UNL1        0.0115
     21 C         142.7305  139.3895  167.9332 C.ar    1  UNL1        0.0039
     22 C         141.5071  138.1114  155.7447 C.3     1  UNL1        0.1026
     23 C         141.0838  136.8819  154.9967 C.3     1  UNL1        0.0235
     24 C         141.3414  135.5239  155.5792 C.3     1  UNL1        0.0191
     25 C         142.6383  135.2411  156.2778 C.3     1  UNL1        0.0722
     26 C         144.1840  129.5876  157.5617 C.3     1  UNL1        0.0897
     27 N         143.7976  131.0010  157.2408 N.3     1  UNL1       -0.2691
     28 C         144.5758  132.1424  157.8251 C.3     1  UNL1        0.0897
     29 C         144.1893  133.5558  157.5041 C.3     1  UNL1        0.0897
     30 N         143.0247  133.8277  156.5988 N.3     1  UNL1       -0.2703
     31 C         142.2465  132.6863  156.0145 C.3     1  UNL1        0.0897
     32 C         142.6329  131.2729  156.3355 C.3     1  UNL1        0.0897
@<TRIPOS>BOND
     1    26    27    1
     2    27    28    1
     3    28    29    1
     4    29    30    1
     5    30    25    1
     6    25    24    1
     7    24    23    1
     8    23    22    1
     9    22     1    1
    10     1     2   am
    11     2     3    2
    12     2     4    1
    13     4     5    1
    14     5     8    1
    15     8     9    2
    16     9    10    1
    17    10    11   ar
    18    11    12   ar
    19    12    13   ar
    20    13    15    1
    21    15    16   ar
    22    16    17   ar
    23    17    18   ar
    24    18    19    1
    25    18    20   ar
    26    20    21   ar
    27    13    14   ar
    28     5     6   am
    29     6     7    2
    30    30    31    1
    31    31    32    1
    32    32    27    1
    33     6     1   am
    34    14    10   ar
    35    21    15   ar
@<TRIPOS>MOLECULE
*****
 32 35 0 0 0
SMALL
GASTEIGER

@<TRIPOS>ATOM
      1 N         141.5176  138.2207  157.9280 N.am    1  UNL1       -0.2113
      2 C         140.0236  138.3520  157.9556 C.2     1  UNL1        0.2550
      3 O         139.1102  138.2809  156.7678 O.2     1  UNL1       -0.2725
      4 C         139.6033  138.5668  159.3794 C.3     1  UNL1        0.2059
      5 N         140.8376  138.5683  160.2318 N.am    1  UNL1       -0.1551
      6 C         142.0207  138.3544  159.3347 C.2     1  UNL1        0.3324
      7 O         143.4550  138.2862  159.7684 O.2     1  UNL1       -0.2501
      8 N         140.8812  138.7515  161.7199 N.2     1  UNL1       -0.1692
      9 C         139.6669  139.2426  162.4509 C.2     1  UNL1        0.1553
     10 C         139.7104  139.4258  163.9390 C.ar    1  UNL1        0.1660
     11 C         138.8572  138.7065  164.9413 C.ar    1  UNL1        0.0423
     12 C         139.2343  139.1966  166.3079 C.ar    1  UNL1        0.0407
     13 C         140.3207  140.2189  166.1502 C.ar    1  UNL1        0.1454
     14 O         140.6149  140.3606  164.6861 O.2     1  UNL1       -0.4519
     15 C         140.9944  140.9680  167.2614 C.ar    1  UNL1        0.0346
     16 C         142.2898  140.4658  167.8270 C.ar    1  UNL1        0.0039
     17 C         142.9635  141.2150  168.9382 C.ar    1  UNL1        0.0115
     18 C         142.3419  142.4663  169.4839 C.ar    1  UNL1        0.0577
     19 CL        143.0157  143.2154  170.5952 Cl      1  UNL1       -0.0822
     20 C         141.0465  142.9685  168.9184 C.ar    1  UNL1        0.0115
     21 C         140.3727  142.2194  167.8072 C.ar    1  UNL1        0.0039
     22 C         142.3605  137.9953  156.7078 C.3     1  UNL1        0.1026
     23 C         142.0115  136.8970  155.7476 C.3     1  UNL1        0.0235
     24 C         142.0631  135.4659  156.1941 C.3     1  UNL1        0.0191
     25 C         143.2256  134.9746  157.0047 C.3     1  UNL1        0.0722
     26 C         144.3598  129.0938  157.3654 C.3     1  UNL1        0.0897
     27 N         144.0762  130.5640  157.2752 N.3     1  UNL1       -0.2691
     28 C         144.9794  131.5455  157.9614 C.3     1  UNL1        0.0897
     29 C         144.6959  133.0157  157.8712 C.3     1  UNL1        0.0897
     30 N         143.5092  133.5044  157.0949 N.3     1  UNL1       -0.2703
     31 C         142.6060  132.5230  156.4086 C.3     1  UNL1        0.0897
     32 C         142.8895  131.0528  156.4988 C.3     1  UNL1        0.0897
@<TRIPOS>BOND
     1    26    27    1
     2    27    28    1
     3    28    29    1
     4    29    30    1
     5    30    25    1
     6    25    24    1
     7    24    23    1
     8    23    22    1
     9    22     1    1
    10     1     2   am
    11     2     3    2
    12     2     4    1
    13     4     5    1
    14     5     8    1
    15     8     9    2
    16     9    10    1
    17    10    11   ar
    18    11    12   ar
    19    12    13   ar
    20    13    15    1
    21    15    16   ar
    22    16    17   ar
    23    17    18   ar
    24    18    19    1
    25    18    20   ar
    26    20    21   ar
    27    13    14   ar
    28     5     6   am
    29     6     7    2
    30    30    31    1
    31    31    32    1
    32    32    27    1
    33     6     1   am
    34    14    10   ar
    35    21    15   ar
@<TRIPOS>MOLECULE
*****
 32 35 0 0 0
SMALL
GASTEIGER

@<TRIPOS>ATOM
      1 N         141.6517  138.5850  158.3687 N.am    1  UNL1       -0.2113
      2 C         140.1620  138.4329  158.4556 C.2     1  UNL1        0.2550
      3 O         139.2400  138.1167  157.3154 O.2     1  UNL1       -0.2725
      4 C         139.7560  138.6525  159.8828 C.3     1  UNL1        0.2059
      5 N         140.9948  138.9403  160.6780 N.am    1  UNL1       -0.1551
      6 C         142.1664  138.8986  159.7423 C.2     1  UNL1        0.3324
      7 O         143.6009  139.1299  160.1147 O.2     1  UNL1       -0.2501
      8 N         141.0521  139.2206  162.1505 N.2     1  UNL1       -0.1692
      9 C         142.1809  138.6755  162.9743 C.2     1  UNL1        0.1553
     10 C         142.2381  138.9558  164.4468 C.ar    1  UNL1        0.1660
     11 C         143.1714  138.3148  165.4307 C.ar    1  UNL1        0.0423
     12 C         142.8823  138.8892  166.7859 C.ar    1  UNL1        0.0407
     13 C         141.7702  139.8852  166.6395 C.ar    1  UNL1        0.1454
     14 O         141.3721  139.9263  165.1939 O.2     1  UNL1       -0.4519
     15 C         141.1629  140.6973  167.7447 C.ar    1  UNL1        0.0346
     16 C         140.1220  140.0893  168.6375 C.ar    1  UNL1        0.0039
     17 C         139.5148  140.9015  169.7427 C.ar    1  UNL1        0.0115
     18 C         139.9482  142.3217  169.9552 C.ar    1  UNL1        0.0577
     19 CL        139.3409  143.1338  171.0604 Cl      1  UNL1       -0.0822
     20 C         140.9890  142.9297  169.0624 C.ar    1  UNL1        0.0115
     21 C         141.5964  142.1176  167.9572 C.ar    1  UNL1        0.0039
     22 C         142.4811  138.4476  157.1264 C.3     1  UNL1        0.1026
     23 C         142.9522  137.0936  156.6851 C.3     1  UNL1        0.0235
     24 C         141.9630  135.9842  156.4836 C.3     1  UNL1        0.0191
     25 C         142.3322  134.7920  155.6515 C.3     1  UNL1        0.0722
     26 C         144.7213  129.9418  158.2530 C.3     1  UNL1        0.0897
     27 N         144.1241  131.1544  157.6027 N.3     1  UNL1       -0.2691
     28 C         142.9448  131.0101  156.6870 C.3     1  UNL1        0.0897
     29 C         142.3475  132.2227  156.0366 C.3     1  UNL1        0.0897
     30 N         142.9295  133.5795  156.3019 N.3     1  UNL1       -0.2703
     31 C         144.1087  133.7237  157.2176 C.3     1  UNL1        0.0897
     32 C         144.7060  132.5112  157.8680 C.3     1  UNL1        0.0897
@<TRIPOS>BOND
     1    26    27    1
     2    27    28    1
     3    28    29    1
     4    29    30    1
     5    30    25    1
     6    25    24    1
     7    24    23    1
     8    23    22    1
     9    22     1    1
    10     1     2   am
    11     2     3    2
    12     2     4    1
    13     4     5    1
    14     5     8    1
    15     8     9    2
    16     9    10    1
    17    10    11   ar
    18    11    12   ar
    19    12    13   ar
    20    13    15    1
    21    15    16   ar
    22    16    17   ar
    23    17    18   ar
    24    18    19    1
    25    18    20   ar
    26    20    21   ar
    27    13    14   ar
    28     5     6   am
    29     6     7    2
    30    30    31    1
    31    31    32    1
    32    32    27    1
    33     6     1   am
    34    14    10   ar
    35    21    15   ar
@<TRIPOS>MOLECULE
*****
 32 35 0 0 0
SMALL
GASTEIGER

@<TRIPOS>ATOM
      1 N         142.8811  142.4409  162.9200 N.am    1  UNL1       -0.2113
      2 C         143.7723  143.3408  162.1163 C.2     1  UNL1        0.2550
      3 O         144.1534  144.7480  162.4691 O.2     1  UNL1       -0.2725
      4 C         144.2154  142.5865  160.8979 C.3     1  UNL1        0.2059
      5 N         143.5981  141.2203  160.9485 N.am    1  UNL1       -0.1551
      6 C         142.7735  141.1304  162.1983 C.2     1  UNL1        0.3324
      7 O         141.9804  139.9390  162.6474 O.2     1  UNL1       -0.2501
      8 N         143.7744  140.1347  159.9285 N.2     1  UNL1       -0.1692
      9 C         142.6713  139.8307  158.9586 C.2     1  UNL1        0.1553
     10 C         142.8477  138.7452  157.9386 C.ar    1  UNL1        0.1660
     11 C         143.3175  138.9303  156.5261 C.ar    1  UNL1        0.0423
     12 C         143.3454  137.5835  155.8665 C.ar    1  UNL1        0.0407
     13 C         142.8928  136.5657  156.8713 C.ar    1  UNL1        0.1454
     14 O         142.5852  137.2838  158.1519 O.2     1  UNL1       -0.4519
     15 C         142.7694  135.0894  156.6367 C.ar    1  UNL1        0.0346
     16 C         141.7849  134.5694  155.6315 C.ar    1  UNL1        0.0039
     17 C         141.6616  133.0930  155.3970 C.ar    1  UNL1        0.0115
     18 C         142.5228  132.1366  156.1675 C.ar    1  UNL1        0.0577
     19 CL        142.3994  130.6602  155.9328 Cl      1  UNL1       -0.0822
     20 C         143.5073  132.6566  157.1726 C.ar    1  UNL1        0.0115
     21 C         143.6307  134.1330  157.4072 C.ar    1  UNL1        0.0039
     22 C         142.2146  142.7901  164.2176 C.3     1  UNL1        0.1026
     23 C         141.4163  144.0548  164.3342 C.3     1  UNL1        0.0235
     24 C         140.0072  144.0077  164.8464 C.3     1  UNL1        0.0191
     25 C         138.8692  143.7961  163.8924 C.3     1  UNL1        0.0722
     26 C         137.7312  138.3082  161.7504 C.3     1  UNL1        0.0897
     27 N         138.0157  139.6802  162.2859 N.3     1  UNL1       -0.2691
     28 C         138.4938  139.8501  163.6974 C.3     1  UNL1        0.0897
     29 C         138.7783  141.2220  164.2329 C.3     1  UNL1        0.0897
     30 N         138.5847  142.4241  163.3569 N.3     1  UNL1       -0.2703
     31 C         138.1065  142.2542  161.9454 C.3     1  UNL1        0.0897
     32 C         137.8220  140.8823  161.4099 C.3     1  UNL1        0.0897
@<TRIPOS>BOND
     1    26    27    1
     2    27    28    1
     3    28    29    1
     4    29    30    1
     5    30    25    1
     6    25    24    1
     7    24    23    1
     8    23    22    1
     9    22     1    1
    10     1     2   am
    11     2     3    2
    12     2     4    1
    13     4     5    1
    14     5     8    1
    15     8     9    2
    16     9    10    1
    17    10    11   ar
    18    11    12   ar
    19    12    13   ar
    20    13    15    1
    21    15    16   ar
    22    16    17   ar
    23    17    18   ar
    24    18    19    1
    25    18    20   ar
    26    20    21   ar
    27    13    14   ar
    28     5     6   am
    29     6     7    2
    30    30    31    1
    31    31    32    1
    32    32    27    1
    33     6     1   am
    34    14    10   ar
    35    21    15   ar
@<TRIPOS>MOLECULE
*****
 32 35 0 0 0
SMALL
GASTEIGER

@<TRIPOS>ATOM
      1 N         142.3144  138.7859  164.0112 N.am    1  UNL1       -0.2113
      2 C         143.6212  139.4618  163.7190 C.2     1  UNL1        0.2550
      3 O         144.3430  140.4147  164.6251 O.2     1  UNL1       -0.2725
      4 C         144.0795  139.0176  162.3616 C.3     1  UNL1        0.2059
      5 N         143.0560  138.0671  161.8148 N.am    1  UNL1       -0.1551
      6 C         141.9651  137.9239  162.8344 C.2     1  UNL1        0.3324
      7 O         140.7400  137.0688  162.7005 O.2     1  UNL1       -0.2501
      8 N         143.1133  137.3804  160.4825 N.2     1  UNL1       -0.1692
      9 C         142.6679  138.1038  159.2462 C.2     1  UNL1        0.1553
     10 C         142.7252  137.4170  157.9139 C.ar    1  UNL1        0.1660
     11 C         142.6102  138.0813  156.5739 C.ar    1  UNL1        0.0423
     12 C         142.7214  137.0203  155.5194 C.ar    1  UNL1        0.0407
     13 C         142.9053  135.7002  156.2077 C.ar    1  UNL1        0.1454
     14 O         142.9076  135.9455  157.6876 O.2     1  UNL1       -0.4519
     15 C         143.0596  134.3688  155.5344 C.ar    1  UNL1        0.0346
     16 C         143.8983  133.2997  156.1699 C.ar    1  UNL1        0.0039
     17 C         144.0526  131.9683  155.4965 C.ar    1  UNL1        0.0115
     18 C         143.3684  131.7059  154.1877 C.ar    1  UNL1        0.0577
     19 CL        143.5228  130.3744  153.5144 Cl      1  UNL1       -0.0822
     20 C         142.5298  132.7749  153.5522 C.ar    1  UNL1        0.0115
     21 C         142.3754  134.1064  154.2255 C.ar    1  UNL1        0.0039
     22 C         141.4999  138.9442  165.2608 C.3     1  UNL1        0.1026
     23 C         140.2727  139.8067  165.2520 C.3     1  UNL1        0.0235
     24 C         140.1909  141.0039  166.1520 C.3     1  UNL1        0.0191
     25 C         141.1056  142.1720  165.9313 C.3     1  UNL1        0.0722
     26 C         139.7466  146.3085  161.8030 C.3     1  UNL1        0.0897
     27 N         140.0864  145.2744  162.8351 N.3     1  UNL1       -0.2691
     28 C         141.5175  144.8918  163.0707 C.3     1  UNL1        0.0897
     29 C         141.8572  143.8576  164.1028 C.3     1  UNL1        0.0897
     30 N         140.7658  143.2061  164.8992 N.3     1  UNL1       -0.2703
     31 C         139.3347  143.5887  164.6636 C.3     1  UNL1        0.0897
     32 C         138.9950  144.6228  163.6316 C.3     1  UNL1        0.0897
@<TRIPOS>BOND
     1    26    27    1
     2    27    28    1
     3    28    29    1
     4    29    30    1
     5    30    25    1
     6    25    24    1
     7    24    23    1
     8    23    22    1
     9    22     1    1
    10     1     2   am
    11     2     3    2
    12     2     4    1
    13     4     5    1
    14     5     8    1
    15     8     9    2
    16     9    10    1
    17    10    11   ar
    18    11    12   ar
    19    12    13   ar
    20    13    15    1
    21    15    16   ar
    22    16    17   ar
    23    17    18   ar
    24    18    19    1
    25    18    20   ar
    26    20    21   ar
    27    13    14   ar
    28     5     6   am
    29     6     7    2
    30    30    31    1
    31    31    32    1
    32    32    27    1
    33     6     1   am
    34    14    10   ar
    35    21    15   ar
