@<TRIPOS>MOLECULE
*****
 36 39 0 0 0
SMALL
GASTEIGER

@<TRIPOS>ATOM
      1 C         140.5409  138.2262  155.5628 C.2     1  UNL1        0.2490
      2 O         140.1263  138.8567  154.2665 O.2     1  UNL1       -0.2699
      3 N         139.9668  138.7234  156.8562 N.am    1  UNL1       -0.2761
      4 C         140.3814  138.0928  158.1525 C.3     1  UNL1        0.0938
      5 C         139.8072  138.5902  159.4460 C.3     1  UNL1        0.0230
      6 C         138.8183  139.7180  159.4431 C.3     1  UNL1        0.0194
      7 C         138.4036  140.3486  158.1468 C.3     1  UNL1        0.0230
      8 C         138.9778  139.8513  156.8534 C.3     1  UNL1        0.0938
      9 C         141.5656  133.1392  155.2932 C.3     1  UNL1        0.0310
     10 C         142.0422  134.5548  155.4308 C.ar    1  UNL1       -0.0217
     11 C         143.5076  134.8425  155.5713 C.ar    1  UNL1       -0.0042
     12 C         143.9841  136.2581  155.7089 C.ar    1  UNL1        0.0010
     13 C         142.9953  137.3860  155.7061 C.ar    1  UNL1        0.0183
     14 C         141.5299  137.0983  155.5656 C.ar    1  UNL1        0.0544
     15 C         141.0533  135.6826  155.4280 C.ar    1  UNL1        0.0003
     16 C         143.4718  138.8016  155.8437 C.2     1  UNL1        0.0730
     17 O         143.8371  139.3420  157.1944 O.co2   1  UNL1       -0.5446
     18 O         143.5831  139.6768  154.6307 O.co2   1  UNL1       -0.5446
     19 C         138.2441  140.2153  160.7365 C.3     1  UNL1        0.0722
     20 N         139.0168  140.0525  162.0119 N.3     1  UNL1       -0.2724
     21 C         140.1271  141.0052  162.3429 C.3     1  UNL1        0.0758
     22 C         140.8997  140.8425  163.6182 C.3     1  UNL1        0.0609
     23 C         140.5621  139.7271  164.5626 C.3     1  UNL1        0.1687
     24 C         139.4518  138.7743  164.2316 C.3     1  UNL1        0.0609
     25 C         138.6791  138.9371  162.9562 C.3     1  UNL1        0.0758
     26 O         141.3348  139.5644  165.8379 O.3     1  UNL1       -0.4790
     27 C         140.9702  140.3774  167.0446 C.ar    1  UNL1        0.1392
     28 C         141.6845  141.6664  167.3241 C.ar    1  UNL1        0.0367
     29 C         141.3200  142.4795  168.5309 C.ar    1  UNL1        0.0021
     30 C         140.2412  142.0034  169.4580 C.ar    1  UNL1        0.0177
     31 C         139.5269  140.7143  169.1784 C.ar    1  UNL1        0.0590
     32 CL        138.4481  140.2382  170.1056 Cl      1  UNL1       -0.0824
     33 C         139.8915  139.9013  167.9717 C.ar    1  UNL1        0.0480
     34 C         139.8766  142.8164  170.6647 C.3     1  UNL1        0.1644
     35 O         140.2619  142.3404  172.0341 O.3     1  UNL1       -0.3772
     36 H         139.7827  141.5223  172.2388 H       1  UNL1        0.2109
@<TRIPOS>UNITY_ATOM_ATTR
17 1
charge -1
@<TRIPOS>BOND
     1     9    10    1
     2    10    11   ar
     3    11    12   ar
     4    12    13   ar
     5    13    16    1
     6    16    17   ar
     7    16    18   ar
     8    13    14   ar
     9    14     1    1
    10     1     2    2
    11     1     3   am
    12     3     4    1
    13     4     5    1
    14     5     6    1
    15     6    19    1
    16    19    20    1
    17    20    21    1
    18    21    22    1
    19    22    23    1
    20    23    26    1
    21    26    27    1
    22    27    28   ar
    23    28    29   ar
    24    29    30   ar
    25    30    34    1
    26    34    35    1
    27    30    31   ar
    28    31    32    1
    29    31    33   ar
    30    23    24    1
    31    24    25    1
    32     6     7    1
    33     7     8    1
    34    14    15   ar
    35    15    10   ar
    36     8     3    1
    37    25    20    1
    38    33    27   ar
    39    35    36    1
@<TRIPOS>MOLECULE
*****
 36 39 0 0 0
SMALL
GASTEIGER

@<TRIPOS>ATOM
      1 C         143.2350  137.1813  155.6667 C.2     1  UNL1        0.2490
      2 O         144.5708  137.8409  155.4915 O.2     1  UNL1       -0.2699
      3 N         142.1798  137.8362  156.5079 N.am    1  UNL1       -0.2761
      4 C         140.8440  137.1766  156.6830 C.3     1  UNL1        0.0938
      5 C         139.7887  137.8315  157.5243 C.3     1  UNL1        0.0230
      6 C         140.0692  139.1459  158.1902 C.3     1  UNL1        0.0194
      7 C         141.4050  139.8055  158.0151 C.3     1  UNL1        0.0230
      8 C         142.4603  139.1506  157.1739 C.3     1  UNL1        0.0938
      9 C         143.5854  131.9973  155.6156 C.3     1  UNL1        0.0310
     10 C         143.1298  133.2748  154.9751 C.ar    1  UNL1       -0.0217
     11 C         142.3937  133.2380  153.6687 C.ar    1  UNL1       -0.0042
     12 C         141.9381  134.5156  153.0283 C.ar    1  UNL1        0.0010
     13 C         142.2185  135.8300  153.6942 C.ar    1  UNL1        0.0183
     14 C         142.9546  135.8669  155.0007 C.ar    1  UNL1        0.0544
     15 C         143.4102  134.5893  155.6411 C.ar    1  UNL1        0.0003
     16 C         141.7629  137.1076  153.0538 C.2     1  UNL1        0.0730
     17 O         142.6529  137.8151  152.0755 O.co2   1  UNL1       -0.5446
     18 O         140.4172  137.6776  153.3917 O.co2   1  UNL1       -0.5446
     19 C         139.0140  139.8007  159.0314 C.3     1  UNL1        0.0722
     20 N         138.8876  139.4489  160.4841 N.3     1  UNL1       -0.2724
     21 C         139.4740  138.1681  160.9994 C.3     1  UNL1        0.0758
     22 C         139.3476  137.8164  162.4521 C.3     1  UNL1        0.0609
     23 C         138.6348  138.7454  163.3895 C.3     1  UNL1        0.1687
     24 C         138.0483  140.0263  162.8741 C.3     1  UNL1        0.0609
     25 C         138.1747  140.3781  161.4215 C.3     1  UNL1        0.0758
     26 O         138.5084  138.3937  164.8421 O.3     1  UNL1       -0.4790
     27 C         139.4875  138.9457  165.8354 C.ar    1  UNL1        0.1392
     28 C         140.9565  138.9219  165.5331 C.ar    1  UNL1        0.0367
     29 C         141.9357  139.4739  166.5264 C.ar    1  UNL1        0.0021
     30 C         141.4458  140.0496  167.8220 C.ar    1  UNL1        0.0177
     31 C         139.9767  140.0733  168.1243 C.ar    1  UNL1        0.0590
     32 CL        139.4868  140.6490  169.4199 Cl      1  UNL1       -0.0824
     33 C         138.9976  139.5213  167.1310 C.ar    1  UNL1        0.0480
     34 C         142.4249  140.6016  168.8153 C.3     1  UNL1        0.1644
     35 O         143.0796  139.6890  169.8096 O.3     1  UNL1       -0.3772
     36 H         142.4098  139.3404  170.4185 H       1  UNL1        0.2109
@<TRIPOS>UNITY_ATOM_ATTR
17 1
charge -1
@<TRIPOS>BOND
     1     9    10    1
     2    10    11   ar
     3    11    12   ar
     4    12    13   ar
     5    13    16    1
     6    16    17   ar
     7    16    18   ar
     8    13    14   ar
     9    14     1    1
    10     1     2    2
    11     1     3   am
    12     3     4    1
    13     4     5    1
    14     5     6    1
    15     6    19    1
    16    19    20    1
    17    20    21    1
    18    21    22    1
    19    22    23    1
    20    23    26    1
    21    26    27    1
    22    27    28   ar
    23    28    29   ar
    24    29    30   ar
    25    30    34    1
    26    34    35    1
    27    30    31   ar
    28    31    32    1
    29    31    33   ar
    30    23    24    1
    31    24    25    1
    32     6     7    1
    33     7     8    1
    34    14    15   ar
    35    15    10   ar
    36     8     3    1
    37    25    20    1
    38    33    27   ar
    39    35    36    1
@<TRIPOS>MOLECULE
*****
 36 39 0 0 0
SMALL
GASTEIGER

@<TRIPOS>ATOM
      1 C         141.6219  143.3197  161.8502 C.2     1  UNL1        0.2490
      2 O         142.6083  144.3359  161.3560 O.2     1  UNL1       -0.2699
      3 N         141.0296  142.3242  160.8973 N.am    1  UNL1       -0.2761
      4 C         140.0432  141.3079  161.3915 C.3     1  UNL1        0.0938
      5 C         139.4508  140.3124  160.4385 C.3     1  UNL1        0.0230
      6 C         139.8449  140.3332  158.9913 C.3     1  UNL1        0.0194
      7 C         140.8313  141.3494  158.4971 C.3     1  UNL1        0.0230
      8 C         141.4236  142.3449  159.4501 C.3     1  UNL1        0.0938
      9 C         142.4607  141.7124  166.7198 C.3     1  UNL1        0.0310
     10 C         141.6472  142.4953  165.7322 C.ar    1  UNL1       -0.0217
     11 C         140.4398  143.2574  166.1917 C.ar    1  UNL1       -0.0042
     12 C         139.6263  144.0403  165.2041 C.ar    1  UNL1        0.0010
     13 C         140.0204  144.0611  163.7569 C.ar    1  UNL1        0.0183
     14 C         141.2278  143.2990  163.2974 C.ar    1  UNL1        0.0544
     15 C         142.0412  142.5161  164.2851 C.ar    1  UNL1        0.0003
     16 C         139.2069  144.8439  162.7693 C.2     1  UNL1        0.0730
     17 O         137.8425  144.3632  162.3729 O.co2   1  UNL1       -0.5446
     18 O         139.7579  146.1076  162.1780 O.co2   1  UNL1       -0.5446
     19 C         139.2526  139.3377  158.0384 C.3     1  UNL1        0.0722
     20 N         140.1406  138.3600  157.3273 N.3     1  UNL1       -0.2724
     21 C         139.6514  137.6635  156.0922 C.3     1  UNL1        0.0758
     22 C         140.5393  136.6858  155.3810 C.3     1  UNL1        0.0609
     23 C         141.9164  136.4047  155.9049 C.3     1  UNL1        0.1687
     24 C         142.4057  137.1013  157.1401 C.3     1  UNL1        0.0609
     25 C         141.5177  138.0789  157.8512 C.3     1  UNL1        0.0758
     26 O         142.8044  135.4271  155.1937 O.3     1  UNL1       -0.4790
     27 C         142.9854  134.0424  155.7413 C.ar    1  UNL1        0.1392
     28 C         142.0239  132.9549  155.3634 C.ar    1  UNL1        0.0367
     29 C         142.2049  131.5701  155.9110 C.ar    1  UNL1        0.0021
     30 C         143.3473  131.2730  156.8365 C.ar    1  UNL1        0.0177
     31 C         144.3088  132.3606  157.2144 C.ar    1  UNL1        0.0590
     32 CL        145.4513  132.0635  158.1399 Cl      1  UNL1       -0.0824
     33 C         144.1278  133.7453  156.6668 C.ar    1  UNL1        0.0480
     34 C         143.5283  129.8883  157.3841 C.3     1  UNL1        0.1644
     35 O         143.3289  129.6287  158.8480 O.3     1  UNL1       -0.3772
     36 H         144.0122  130.0944  159.3550 H       1  UNL1        0.2109
@<TRIPOS>UNITY_ATOM_ATTR
17 1
charge -1
@<TRIPOS>BOND
     1     9    10    1
     2    10    11   ar
     3    11    12   ar
     4    12    13   ar
     5    13    16    1
     6    16    17   ar
     7    16    18   ar
     8    13    14   ar
     9    14     1    1
    10     1     2    2
    11     1     3   am
    12     3     4    1
    13     4     5    1
    14     5     6    1
    15     6    19    1
    16    19    20    1
    17    20    21    1
    18    21    22    1
    19    22    23    1
    20    23    26    1
    21    26    27    1
    22    27    28   ar
    23    28    29   ar
    24    29    30   ar
    25    30    34    1
    26    34    35    1
    27    30    31   ar
    28    31    32    1
    29    31    33   ar
    30    23    24    1
    31    24    25    1
    32     6     7    1
    33     7     8    1
    34    14    15   ar
    35    15    10   ar
    36     8     3    1
    37    25    20    1
    38    33    27   ar
    39    35    36    1
@<TRIPOS>MOLECULE
*****
 36 39 0 0 0
SMALL
GASTEIGER

@<TRIPOS>ATOM
      1 C         141.1861  142.5994  157.5211 C.2     1  UNL1        0.2490
      2 O         142.6828  142.6500  157.4362 O.2     1  UNL1       -0.2699
      3 N         140.5194  141.6060  158.4259 N.am    1  UNL1       -0.2761
      4 C         139.0227  141.5553  158.5109 C.3     1  UNL1        0.0938
      5 C         138.3560  140.5619  159.4157 C.3     1  UNL1        0.0230
      6 C         139.1860  139.6192  160.2356 C.3     1  UNL1        0.0194
      7 C         140.6828  139.6699  160.1507 C.3     1  UNL1        0.0230
      8 C         141.3495  140.6632  159.2459 C.3     1  UNL1        0.0938
      9 C         138.3040  143.5542  153.3043 C.3     1  UNL1        0.0310
     10 C         138.9150  144.0195  154.5927 C.ar    1  UNL1       -0.0217
     11 C         138.6960  145.4275  155.0612 C.ar    1  UNL1       -0.0042
     12 C         139.3070  145.8928  156.3497 C.ar    1  UNL1        0.0010
     13 C         140.1370  144.9501  157.1697 C.ar    1  UNL1        0.0183
     14 C         140.3560  143.5421  156.7012 C.ar    1  UNL1        0.0544
     15 C         139.7450  143.0768  155.4127 C.ar    1  UNL1        0.0003
     16 C         140.7480  145.4154  158.4581 C.2     1  UNL1        0.0730
     17 O         142.1778  145.8680  158.4898 O.co2   1  UNL1       -0.5446
     18 O         139.9294  145.4282  159.7149 O.co2   1  UNL1       -0.5446
     19 C         138.5194  138.6259  161.1405 C.3     1  UNL1        0.0722
     20 N         138.5143  138.8480  162.6239 N.3     1  UNL1       -0.2724
     21 C         138.0638  140.1647  163.1836 C.3     1  UNL1        0.0758
     22 C         138.0588  140.3868  164.6671 C.3     1  UNL1        0.0609
     23 C         138.5043  139.2922  165.5908 C.3     1  UNL1        0.1687
     24 C         138.9548  137.9754  165.0311 C.3     1  UNL1        0.0609
     25 C         138.9599  137.7533  163.5477 C.3     1  UNL1        0.0758
     26 O         138.4993  139.5142  167.0743 O.3     1  UNL1       -0.4790
     27 C         139.6638  140.1900  167.7354 C.ar    1  UNL1        0.1392
     28 C         139.7304  140.2762  169.2315 C.ar    1  UNL1        0.0367
     29 C         140.8950  140.9519  169.8927 C.ar    1  UNL1        0.0021
     30 C         141.9930  141.5414  169.0578 C.ar    1  UNL1        0.0177
     31 C         141.9263  141.4552  167.5617 C.ar    1  UNL1        0.0590
     32 CL        143.0243  142.0447  166.7269 Cl      1  UNL1       -0.0824
     33 C         140.7618  140.7795  166.9006 C.ar    1  UNL1        0.0480
     34 C         143.1575  142.2171  169.7190 C.3     1  UNL1        0.1644
     35 O         142.9523  143.0001  170.9819 O.3     1  UNL1       -0.3772
     36 H         142.3993  143.7750  170.7957 H       1  UNL1        0.2109
@<TRIPOS>UNITY_ATOM_ATTR
17 1
charge -1
@<TRIPOS>BOND
     1     9    10    1
     2    10    11   ar
     3    11    12   ar
     4    12    13   ar
     5    13    16    1
     6    16    17   ar
     7    16    18   ar
     8    13    14   ar
     9    14     1    1
    10     1     2    2
    11     1     3   am
    12     3     4    1
    13     4     5    1
    14     5     6    1
    15     6    19    1
    16    19    20    1
    17    20    21    1
    18    21    22    1
    19    22    23    1
    20    23    26    1
    21    26    27    1
    22    27    28   ar
    23    28    29   ar
    24    29    30   ar
    25    30    34    1
    26    34    35    1
    27    30    31   ar
    28    31    32    1
    29    31    33   ar
    30    23    24    1
    31    24    25    1
    32     6     7    1
    33     7     8    1
    34    14    15   ar
    35    15    10   ar
    36     8     3    1
    37    25    20    1
    38    33    27   ar
    39    35    36    1
@<TRIPOS>MOLECULE
*****
 36 39 0 0 0
SMALL
GASTEIGER

@<TRIPOS>ATOM
      1 C         141.2094  142.3360  165.8969 C.2     1  UNL1        0.2490
      2 O         139.9886  143.2052  165.9603 O.2     1  UNL1       -0.2699
      3 N         141.8684  142.0635  164.5773 N.am    1  UNL1       -0.2761
      4 C         143.0893  141.1943  164.5139 C.3     1  UNL1        0.0938
      5 C         143.7483  140.9219  163.1942 C.3     1  UNL1        0.0230
      6 C         143.1865  141.5187  161.9380 C.3     1  UNL1        0.0194
      7 C         141.9656  142.3879  162.0013 C.3     1  UNL1        0.0230
      8 C         141.3066  142.6603  163.3210 C.3     1  UNL1        0.0938
      9 C         144.3742  142.6543  170.0058 C.3     1  UNL1        0.0310
     10 C         143.3537  141.8984  169.2076 C.ar    1  UNL1       -0.0217
     11 C         142.8949  140.5458  169.6657 C.ar    1  UNL1       -0.0042
     12 C         141.8743  139.7899  168.8676 C.ar    1  UNL1        0.0010
     13 C         141.3125  140.3866  167.6113 C.ar    1  UNL1        0.0183
     14 C         141.7713  141.7392  167.1532 C.ar    1  UNL1        0.0544
     15 C         142.7918  142.4951  167.9514 C.ar    1  UNL1        0.0003
     16 C         140.2919  139.6307  166.8132 C.2     1  UNL1        0.0730
     17 O         138.8463  139.6744  167.2108 O.co2   1  UNL1       -0.5446
     18 O         140.7170  138.8311  165.6174 O.co2   1  UNL1       -0.5446
     19 C         143.8455  141.2462  160.6183 C.3     1  UNL1        0.0722
     20 N         143.2086  140.3014  159.6428 N.3     1  UNL1       -0.2724
     21 C         143.6271  140.3156  158.2025 C.3     1  UNL1        0.0758
     22 C         142.9902  139.3708  157.2270 C.3     1  UNL1        0.0609
     23 C         141.9347  138.4117  157.6918 C.3     1  UNL1        0.1687
     24 C         141.5161  138.3974  159.1322 C.3     1  UNL1        0.0609
     25 C         142.1530  139.3423  160.1077 C.3     1  UNL1        0.0758
     26 O         141.2978  137.4668  156.7163 O.3     1  UNL1       -0.4790
     27 C         141.9544  136.1545  156.4055 C.ar    1  UNL1        0.1392
     28 C         143.1671  135.7218  157.1749 C.ar    1  UNL1        0.0367
     29 C         143.8236  134.4093  156.8642 C.ar    1  UNL1        0.0021
     30 C         143.2675  133.5297  155.7840 C.ar    1  UNL1        0.0177
     31 C         142.0547  133.9625  155.0145 C.ar    1  UNL1        0.0590
     32 CL        141.4985  133.0828  153.9343 Cl      1  UNL1       -0.0824
     33 C         141.3982  135.2748  155.3253 C.ar    1  UNL1        0.0480
     34 C         143.9240  132.2173  155.4732 C.3     1  UNL1        0.1644
     35 O         145.2787  131.9045  156.0362 O.3     1  UNL1       -0.3772
     36 H         145.9348  132.5085  155.6547 H       1  UNL1        0.2109
@<TRIPOS>UNITY_ATOM_ATTR
17 1
charge -1
@<TRIPOS>BOND
     1     9    10    1
     2    10    11   ar
     3    11    12   ar
     4    12    13   ar
     5    13    16    1
     6    16    17   ar
     7    16    18   ar
     8    13    14   ar
     9    14     1    1
    10     1     2    2
    11     1     3   am
    12     3     4    1
    13     4     5    1
    14     5     6    1
    15     6    19    1
    16    19    20    1
    17    20    21    1
    18    21    22    1
    19    22    23    1
    20    23    26    1
    21    26    27    1
    22    27    28   ar
    23    28    29   ar
    24    29    30   ar
    25    30    34    1
    26    34    35    1
    27    30    31   ar
    28    31    32    1
    29    31    33   ar
    30    23    24    1
    31    24    25    1
    32     6     7    1
    33     7     8    1
    34    14    15   ar
    35    15    10   ar
    36     8     3    1
    37    25    20    1
    38    33    27   ar
    39    35    36    1
@<TRIPOS>MOLECULE
*****
 36 39 0 0 0
SMALL
GASTEIGER

@<TRIPOS>ATOM
      1 C         143.6421  137.3507  155.7915 C.2     1  UNL1        0.2490
      2 O         145.0083  137.8790  155.4685 O.2     1  UNL1       -0.2699
      3 N         142.8320  137.9838  156.8837 N.am    1  UNL1       -0.2761
      4 C         141.4658  137.4555  157.2066 C.3     1  UNL1        0.0938
      5 C         140.6557  138.0887  158.2989 C.3     1  UNL1        0.0230
      6 C         141.2119  139.2501  159.0681 C.3     1  UNL1        0.0194
      7 C         142.5781  139.7784  158.7451 C.3     1  UNL1        0.0230
      8 C         143.3882  139.1453  157.6530 C.3     1  UNL1        0.0938
      9 C         143.0914  132.2229  155.1571 C.3     1  UNL1        0.0310
     10 C         142.8106  133.6253  154.7050 C.ar    1  UNL1       -0.0217
     11 C         141.9737  133.8663  153.4838 C.ar    1  UNL1       -0.0042
     12 C         141.6930  135.2687  153.0317 C.ar    1  UNL1        0.0010
     13 C         142.2491  136.4302  153.8009 C.ar    1  UNL1        0.0183
     14 C         143.0860  136.1892  155.0222 C.ar    1  UNL1        0.0544
     15 C         143.3667  134.7868  155.4742 C.ar    1  UNL1        0.0003
     16 C         141.9683  137.8326  153.3489 C.2     1  UNL1        0.0730
     17 O         140.7932  138.5794  153.9069 O.co2   1  UNL1       -0.5446
     18 O         142.8627  138.4883  152.3388 O.co2   1  UNL1       -0.5446
     19 C         140.4018  139.8832  160.1603 C.3     1  UNL1        0.0722
     20 N         141.0470  140.2256  161.4704 N.3     1  UNL1       -0.2724
     21 C         141.5938  139.1361  162.3446 C.3     1  UNL1        0.0758
     22 C         142.2390  139.4785  163.6547 C.3     1  UNL1        0.0609
     23 C         142.3375  140.9103  164.0907 C.3     1  UNL1        0.1687
     24 C         141.7908  141.9999  163.2165 C.3     1  UNL1        0.0609
     25 C         141.1455  141.6575  161.9064 C.3     1  UNL1        0.0758
     26 O         142.9827  141.2527  165.4009 O.3     1  UNL1       -0.4790
     27 C         142.2649  140.9694  166.6871 C.ar    1  UNL1        0.1392
     28 C         141.0020  141.7074  167.0194 C.ar    1  UNL1        0.0367
     29 C         140.2841  141.4241  168.3057 C.ar    1  UNL1        0.0021
     30 C         140.8292  140.4028  169.2596 C.ar    1  UNL1        0.0177
     31 C         142.0921  139.6649  168.9272 C.ar    1  UNL1        0.0590
     32 CL        142.6372  138.6436  169.8811 Cl      1  UNL1       -0.0824
     33 C         142.8100  139.9482  167.6410 C.ar    1  UNL1        0.0480
     34 C         140.1113  140.1195  170.5458 C.3     1  UNL1        0.1644
     35 O         140.6978  140.5770  171.8485 O.3     1  UNL1       -0.3772
     36 H         141.5254  140.0995  172.0159 H       1  UNL1        0.2109
@<TRIPOS>UNITY_ATOM_ATTR
17 1
charge -1
@<TRIPOS>BOND
     1     9    10    1
     2    10    11   ar
     3    11    12   ar
     4    12    13   ar
     5    13    16    1
     6    16    17   ar
     7    16    18   ar
     8    13    14   ar
     9    14     1    1
    10     1     2    2
    11     1     3   am
    12     3     4    1
    13     4     5    1
    14     5     6    1
    15     6    19    1
    16    19    20    1
    17    20    21    1
    18    21    22    1
    19    22    23    1
    20    23    26    1
    21    26    27    1
    22    27    28   ar
    23    28    29   ar
    24    29    30   ar
    25    30    34    1
    26    34    35    1
    27    30    31   ar
    28    31    32    1
    29    31    33   ar
    30    23    24    1
    31    24    25    1
    32     6     7    1
    33     7     8    1
    34    14    15   ar
    35    15    10   ar
    36     8     3    1
    37    25    20    1
    38    33    27   ar
    39    35    36    1
@<TRIPOS>MOLECULE
*****
 36 39 0 0 0
SMALL
GASTEIGER

@<TRIPOS>ATOM
      1 C         141.3262  144.3448  158.2100 C.2     1  UNL1        0.2490
      2 O         142.6517  144.7217  158.8025 O.2     1  UNL1       -0.2699
      3 N         140.4591  143.3312  158.8960 N.am    1  UNL1       -0.2761
      4 C         139.1336  142.9543  158.3035 C.3     1  UNL1        0.0938
      5 C         138.2664  141.9406  158.9896 C.3     1  UNL1        0.0230
      6 C         138.7248  141.3039  160.2680 C.3     1  UNL1        0.0194
      7 C         140.0503  141.6807  160.8604 C.3     1  UNL1        0.0230
      8 C         140.9174  142.6944  160.1744 C.3     1  UNL1        0.0938
      9 C         138.8748  148.1952  155.7270 C.3     1  UNL1        0.0310
     10 C         139.6421  146.9069  155.6901 C.ar    1  UNL1       -0.0217
     11 C         139.9511  146.2553  154.3748 C.ar    1  UNL1       -0.0042
     12 C         140.7184  144.9670  154.3379 C.ar    1  UNL1        0.0010
     13 C         141.1768  144.3302  155.6163 C.ar    1  UNL1        0.0183
     14 C         140.8678  144.9817  156.9315 C.ar    1  UNL1        0.0544
     15 C         140.1005  146.2700  156.9685 C.ar    1  UNL1        0.0003
     16 C         141.9441  143.0418  155.5794 C.2     1  UNL1        0.0730
     17 O         143.4414  143.0628  155.4933 O.co2   1  UNL1       -0.5446
     18 O         141.2141  141.7324  155.6285 O.co2   1  UNL1       -0.5446
     19 C         137.8577  140.2902  160.9539 C.3     1  UNL1        0.0722
     20 N         138.0963  139.9519  162.3956 N.3     1  UNL1       -0.2724
     21 C         137.7603  140.9482  163.4654 C.3     1  UNL1        0.0758
     22 C         137.9989  140.6098  164.9071 C.3     1  UNL1        0.0609
     23 C         138.5736  139.2752  165.2791 C.3     1  UNL1        0.1687
     24 C         138.9097  138.2788  164.2093 C.3     1  UNL1        0.0609
     25 C         138.6710  138.6171  162.7676 C.3     1  UNL1        0.0758
     26 O         138.8122  138.9368  166.7208 O.3     1  UNL1       -0.4790
     27 C         139.5551  139.8957  167.6032 C.ar    1  UNL1        0.1392
     28 C         139.0444  140.1964  168.9811 C.ar    1  UNL1        0.0367
     29 C         139.7873  141.1554  169.8636 C.ar    1  UNL1        0.0021
     30 C         141.0408  141.8135  169.3681 C.ar    1  UNL1        0.0177
     31 C         141.5514  141.5127  167.9901 C.ar    1  UNL1        0.0590
     32 CL        142.8049  142.1708  167.4945 Cl      1  UNL1       -0.0824
     33 C         140.8086  140.5538  167.1077 C.ar    1  UNL1        0.0480
     34 C         141.7836  142.7724  170.2505 C.3     1  UNL1        0.1644
     35 O         141.2988  144.1841  170.3996 O.3     1  UNL1       -0.3772
     36 H         141.3828  144.6461  169.5509 H       1  UNL1        0.2109
@<TRIPOS>UNITY_ATOM_ATTR
17 1
charge -1
@<TRIPOS>BOND
     1     9    10    1
     2    10    11   ar
     3    11    12   ar
     4    12    13   ar
     5    13    16    1
     6    16    17   ar
     7    16    18   ar
     8    13    14   ar
     9    14     1    1
    10     1     2    2
    11     1     3   am
    12     3     4    1
    13     4     5    1
    14     5     6    1
    15     6    19    1
    16    19    20    1
    17    20    21    1
    18    21    22    1
    19    22    23    1
    20    23    26    1
    21    26    27    1
    22    27    28   ar
    23    28    29   ar
    24    29    30   ar
    25    30    34    1
    26    34    35    1
    27    30    31   ar
    28    31    32    1
    29    31    33   ar
    30    23    24    1
    31    24    25    1
    32     6     7    1
    33     7     8    1
    34    14    15   ar
    35    15    10   ar
    36     8     3    1
    37    25    20    1
    38    33    27   ar
    39    35    36    1
@<TRIPOS>MOLECULE
*****
 36 39 0 0 0
SMALL
GASTEIGER

@<TRIPOS>ATOM
      1 C         139.1707  139.8830  166.3305 C.2     1  UNL1        0.2490
      2 O         138.2501  138.7049  166.2090 O.2     1  UNL1       -0.2699
      3 N         139.0031  141.0629  165.4198 N.am    1  UNL1       -0.2761
      4 C         139.9237  142.2409  165.5413 C.3     1  UNL1        0.0938
      5 C         139.7561  143.4210  164.6305 C.3     1  UNL1        0.0230
      6 C         138.6678  143.4229  163.5982 C.3     1  UNL1        0.0194
      7 C         137.7472  142.2449  163.4766 C.3     1  UNL1        0.0230
      8 C         137.9148  141.0649  164.3874 C.3     1  UNL1        0.0938
      9 C         140.7280  140.6452  171.2289 C.3     1  UNL1        0.0310
     10 C         141.0376  140.2621  169.8121 C.ar    1  UNL1       -0.0217
     11 C         142.4354  139.8770  169.4276 C.ar    1  UNL1       -0.0042
     12 C         142.7450  139.4938  168.0108 C.ar    1  UNL1        0.0010
     13 C         141.6568  139.4958  166.9785 C.ar    1  UNL1        0.0183
     14 C         140.2590  139.8809  167.3629 C.ar    1  UNL1        0.0544
     15 C         139.9494  140.2641  168.7797 C.ar    1  UNL1        0.0003
     16 C         141.9664  139.1127  165.5616 C.2     1  UNL1        0.0730
     17 O         142.5086  140.1368  164.6092 O.co2   1  UNL1       -0.5446
     18 O         141.7337  137.7056  165.0973 O.co2   1  UNL1       -0.5446
     19 C         138.5002  144.6029  162.6874 C.3     1  UNL1        0.0722
     20 N         139.2063  144.6354  161.3644 N.3     1  UNL1       -0.2724
     21 C         139.9866  145.8511  160.9604 C.3     1  UNL1        0.0758
     22 C         140.6927  145.8836  159.6374 C.3     1  UNL1        0.0609
     23 C         140.6184  144.7005  158.7184 C.3     1  UNL1        0.1687
     24 C         139.8381  143.4848  159.1223 C.3     1  UNL1        0.0609
     25 C         139.1320  143.4522  160.4453 C.3     1  UNL1        0.0758
     26 O         141.3245  144.7331  157.3953 O.3     1  UNL1       -0.4790
     27 C         142.3943  143.7266  157.0912 C.ar    1  UNL1        0.1392
     28 C         143.3796  143.3356  158.1524 C.ar    1  UNL1        0.0367
     29 C         144.4495  142.3291  157.8483 C.ar    1  UNL1        0.0021
     30 C         144.5341  141.7138  156.4830 C.ar    1  UNL1        0.0177
     31 C         143.5487  142.1049  155.4217 C.ar    1  UNL1        0.0590
     32 CL        143.6333  141.4895  154.0564 Cl      1  UNL1       -0.0824
     33 C         142.4789  143.1113  155.7259 C.ar    1  UNL1        0.0480
     34 C         145.6039  140.7073  156.1788 C.3     1  UNL1        0.1644
     35 O         147.0215  141.1562  155.9811 O.3     1  UNL1       -0.3772
     36 H         147.0794  141.7014  155.1810 H       1  UNL1        0.2109
@<TRIPOS>UNITY_ATOM_ATTR
17 1
charge -1
@<TRIPOS>BOND
     1     9    10    1
     2    10    11   ar
     3    11    12   ar
     4    12    13   ar
     5    13    16    1
     6    16    17   ar
     7    16    18   ar
     8    13    14   ar
     9    14     1    1
    10     1     2    2
    11     1     3   am
    12     3     4    1
    13     4     5    1
    14     5     6    1
    15     6    19    1
    16    19    20    1
    17    20    21    1
    18    21    22    1
    19    22    23    1
    20    23    26    1
    21    26    27    1
    22    27    28   ar
    23    28    29   ar
    24    29    30   ar
    25    30    34    1
    26    34    35    1
    27    30    31   ar
    28    31    32    1
    29    31    33   ar
    30    23    24    1
    31    24    25    1
    32     6     7    1
    33     7     8    1
    34    14    15   ar
    35    15    10   ar
    36     8     3    1
    37    25    20    1
    38    33    27   ar
    39    35    36    1
@<TRIPOS>MOLECULE
*****
 36 39 0 0 0
SMALL
GASTEIGER

@<TRIPOS>ATOM
      1 C         143.8255  142.2598  158.6583 C.2     1  UNL1        0.2490
      2 O         145.0799  142.6325  159.3916 O.2     1  UNL1       -0.2699
      3 N         142.8450  141.3120  159.2830 N.am    1  UNL1       -0.2761
      4 C         141.5907  140.9394  158.5496 C.3     1  UNL1        0.0938
      5 C         140.6101  139.9915  159.1744 C.3     1  UNL1        0.0230
      6 C         140.8840  139.4164  160.5324 C.3     1  UNL1        0.0194
      7 C         142.1383  139.7891  161.2657 C.3     1  UNL1        0.0230
      8 C         143.1188  140.7368  160.6410 C.3     1  UNL1        0.0938
      9 C         141.3544  145.6925  155.6400 C.3     1  UNL1        0.0310
     10 C         142.3161  144.5514  155.7911 C.ar    1  UNL1       -0.0217
     11 C         143.0041  143.9854  154.5843 C.ar    1  UNL1       -0.0042
     12 C         143.9658  142.8443  154.7355 C.ar    1  UNL1        0.0010
     13 C         144.2397  142.2691  156.0935 C.ar    1  UNL1        0.0183
     14 C         143.5517  142.8350  157.3003 C.ar    1  UNL1        0.0544
     15 C         142.5900  143.9762  157.1491 C.ar    1  UNL1        0.0003
     16 C         145.2014  141.1280  156.2446 C.2     1  UNL1        0.0730
     17 O         144.7088  139.7878  156.7042 O.co2   1  UNL1       -0.5446
     18 O         146.6558  141.3270  155.9362 O.co2   1  UNL1       -0.5446
     19 C         139.9035  138.4686  161.1570 C.3     1  UNL1        0.0722
     20 N         139.5569  138.5982  162.6107 N.3     1  UNL1       -0.2724
     21 C         140.1008  137.6127  163.6021 C.3     1  UNL1        0.0758
     22 C         139.7543  137.7423  165.0557 C.3     1  UNL1        0.0609
     23 C         138.8639  138.8573  165.5180 C.3     1  UNL1        0.1687
     24 C         138.3199  139.8429  164.5266 C.3     1  UNL1        0.0609
     25 C         138.6665  139.7133  163.0729 C.3     1  UNL1        0.0758
     26 O         138.5173  138.9869  166.9717 O.3     1  UNL1       -0.4790
     27 C         139.3314  139.8803  167.8600 C.ar    1  UNL1        0.1392
     28 C         138.9068  140.1150  169.2793 C.ar    1  UNL1        0.0367
     29 C         139.7208  141.0085  170.1677 C.ar    1  UNL1        0.0021
     30 C         140.9594  141.6672  169.6367 C.ar    1  UNL1        0.0177
     31 C         141.3840  141.4324  168.2173 C.ar    1  UNL1        0.0590
     32 CL        142.6226  142.0911  167.6862 Cl      1  UNL1       -0.0824
     33 C         140.5700  140.5390  167.3289 C.ar    1  UNL1        0.0480
     34 C         141.7734  142.5606  170.5250 C.3     1  UNL1        0.1644
     35 O         142.1496  142.1058  171.9041 O.3     1  UNL1       -0.3772
     36 H         141.3498  142.0227  172.4466 H       1  UNL1        0.2109
@<TRIPOS>UNITY_ATOM_ATTR
17 1
charge -1
@<TRIPOS>BOND
     1     9    10    1
     2    10    11   ar
     3    11    12   ar
     4    12    13   ar
     5    13    16    1
     6    16    17   ar
     7    16    18   ar
     8    13    14   ar
     9    14     1    1
    10     1     2    2
    11     1     3   am
    12     3     4    1
    13     4     5    1
    14     5     6    1
    15     6    19    1
    16    19    20    1
    17    20    21    1
    18    21    22    1
    19    22    23    1
    20    23    26    1
    21    26    27    1
    22    27    28   ar
    23    28    29   ar
    24    29    30   ar
    25    30    34    1
    26    34    35    1
    27    30    31   ar
    28    31    32    1
    29    31    33   ar
    30    23    24    1
    31    24    25    1
    32     6     7    1
    33     7     8    1
    34    14    15   ar
    35    15    10   ar
    36     8     3    1
    37    25    20    1
    38    33    27   ar
    39    35    36    1
