@<TRIPOS>MOLECULE
*****
 38 43 0 0 0
SMALL
GASTEIGER

@<TRIPOS>ATOM
      1 C         139.3882  143.5001  157.4993 C.3     1  UNL1        0.0666
      2 S         140.0992  144.4884  158.3755 S.3     1  UNL1       -0.0756
      3 C         142.6057  143.5880  161.1991 C.ar    1  UNL1        0.1669
      4 N         143.3436  143.0970  159.9889 N.ar    1  UNL1       -0.1282
      5 N         142.4945  143.3745  158.7840 N.ar    1  UNL1       -0.1221
      6 C         141.2317  144.0371  159.2494 C.ar    1  UNL1        0.1932
      7 N         141.3005  144.1690  160.7419 N.ar    1  UNL1       -0.2884
      8 C         140.2487  144.7754  161.6229 C.3     1  UNL1        0.1340
      9 C         142.7418  138.3335  165.6287 C.3     1  UNL1        0.0521
     10 C         142.8284  139.6280  164.8758 C.ar    1  UNL1        0.0593
     11 C         142.3459  139.7045  163.4576 C.ar    1  UNL1        0.0147
     12 C         142.4325  140.9990  162.7048 C.ar    1  UNL1        0.0028
     13 C         143.0016  142.2170  163.3701 C.ar    1  UNL1        0.0206
     14 C         143.0882  143.5115  162.6172 C.ar    1  UNL1        0.0374
     15 C         143.6573  144.7294  163.2826 C.ar    1  UNL1        0.0031
     16 C         144.1399  144.6529  164.7008 C.ar    1  UNL1        0.0016
     17 C         144.0533  143.3585  165.4536 C.ar    1  UNL1        0.0191
     18 C         143.4842  142.1405  164.7883 C.ar    1  UNL1        0.0810
     19 N         143.3976  140.8460  165.5412 N.ar    1  UNL1       -0.2497
     20 C         138.3066  142.6324  158.0716 C.3     1  UNL1        0.0294
     21 C         138.5622  141.1735  158.3086 C.3     1  UNL1        0.0730
     22 N         138.6530  140.6459  159.7098 N.3     1  UNL1       -0.2720
     23 C         138.8327  139.1620  159.8359 C.3     1  UNL1        0.0768
     24 C         138.9559  138.3376  161.0831 C.3     1  UNL1        0.0433
     25 C         138.9298  138.7934  162.5118 C.ar    1  UNL1       -0.0247
     26 C         139.0863  137.6400  163.4580 C.ar    1  UNL1       -0.0045
     27 C         139.0872  137.8794  164.9387 C.ar    1  UNL1        0.0013
     28 C         138.9315  139.2722  165.4735 C.ar    1  UNL1        0.0206
     29 C         138.7750  140.4256  164.5273 C.ar    1  UNL1       -0.0029
     30 C         138.7742  140.1862  163.0465 C.ar    1  UNL1       -0.0246
     31 C         138.6061  141.4672  162.2844 C.3     1  UNL1        0.0433
     32 C         138.5522  141.6717  160.7994 C.3     1  UNL1        0.0768
     33 C         138.9324  139.5116  166.9542 C.ar    1  UNL1        0.1227
     34 C         139.9589  140.2918  167.7206 C.ar    1  UNL1        0.0580
     35 C         139.5678  140.2752  169.1686 C.ar    1  UNL1        0.1548
     36 C         140.3139  140.9335  170.2910 C.3     1  UNL1        0.0754
     37 O         138.2995  139.4847  169.2971 O.2     1  UNL1       -0.3578
     38 N         137.9067  139.0127  167.9286 N.ar    1  UNL1       -0.0774
@<TRIPOS>BOND
     1     9    10    1
     2    10    11   ar
     3    11    12   ar
     4    12    13   ar
     5    13    14   ar
     6    14     3    1
     7     3     4   ar
     8     4     5   ar
     9     5     6   ar
    10     6     2    1
    11     2     1    1
    12     1    20    1
    13    20    21    1
    14    21    22    1
    15    22    23    1
    16    23    24    1
    17    24    25    1
    18    25    26   ar
    19    26    27   ar
    20    27    28   ar
    21    28    33    1
    22    33    34   ar
    23    34    35   ar
    24    35    36    1
    25    35    37   ar
    26    37    38   ar
    27    28    29   ar
    28    29    30   ar
    29    30    31    1
    30    31    32    1
    31     6     7   ar
    32     7     8    1
    33    14    15   ar
    34    15    16   ar
    35    16    17   ar
    36    17    18   ar
    37    18    19   ar
    38    19    10   ar
    39    18    13   ar
    40     7     3   ar
    41    32    22    1
    42    30    25   ar
    43    38    33   ar
@<TRIPOS>MOLECULE
*****
 38 43 0 0 0
SMALL
GASTEIGER

@<TRIPOS>ATOM
      1 C         139.2207  139.7166  157.2001 C.3     1  UNL1        0.0666
      2 S         138.2676  140.8130  157.5733 S.3     1  UNL1       -0.0756
      3 C         138.9898  142.9207  160.7515 C.ar    1  UNL1        0.1669
      4 N         139.5134  143.8274  159.6773 N.ar    1  UNL1       -0.1282
      5 N         139.3066  143.1481  158.3560 N.ar    1  UNL1       -0.1221
      6 C         138.6552  141.8217  158.6136 C.ar    1  UNL1        0.1932
      7 N         138.4594  141.6812  160.0941 N.ar    1  UNL1       -0.2884
      8 C         137.8417  140.5073  160.7943 C.3     1  UNL1        0.1340
      9 C         144.1152  142.8302  165.3311 C.3     1  UNL1        0.0521
     10 C         142.8353  142.9236  164.5544 C.ar    1  UNL1        0.0593
     11 C         142.8295  142.6404  163.0814 C.ar    1  UNL1        0.0147
     12 C         141.5496  142.7338  162.3048 C.ar    1  UNL1        0.0028
     13 C         140.2756  143.1105  163.0012 C.ar    1  UNL1        0.0206
     14 C         138.9957  143.2039  162.2245 C.ar    1  UNL1        0.0374
     15 C         137.7217  143.5806  162.9209 C.ar    1  UNL1        0.0031
     16 C         137.7275  143.8638  164.3939 C.ar    1  UNL1        0.0016
     17 C         139.0073  143.7704  165.1705 C.ar    1  UNL1        0.0191
     18 C         140.2814  143.3937  164.4742 C.ar    1  UNL1        0.0810
     19 N         141.5613  143.3003  165.2509 N.ar    1  UNL1       -0.2497
     20 C         140.6555  139.7910  157.6314 C.3     1  UNL1        0.0294
     21 C         141.2836  138.6338  158.3499 C.3     1  UNL1        0.0730
     22 N         141.6863  138.7732  159.7881 N.3     1  UNL1       -0.2720
     23 C         143.1630  138.7960  160.0510 C.3     1  UNL1        0.0768
     24 C         143.8773  138.9226  161.3641 C.3     1  UNL1        0.0433
     25 C         143.2913  139.0576  162.7382 C.ar    1  UNL1       -0.0247
     26 C         144.3626  139.1575  163.7834 C.ar    1  UNL1       -0.0045
     27 C         143.9890  139.2991  165.2292 C.ar    1  UNL1        0.0013
     28 C         142.5441  139.3409  165.6299 C.ar    1  UNL1        0.0206
     29 C         141.4728  139.2411  164.5847 C.ar    1  UNL1       -0.0029
     30 C         141.8464  139.0995  163.1389 C.ar    1  UNL1       -0.0246
     31 C         140.6306  139.0165  162.2643 C.3     1  UNL1        0.0433
     32 C         140.5594  138.8713  160.7730 C.3     1  UNL1        0.0768
     33 C         142.1706  139.4825  167.0757 C.ar    1  UNL1        0.1227
     34 C         140.8915  140.0620  167.6032 C.ar    1  UNL1        0.0580
     35 C         140.9409  140.0071  169.1013 C.ar    1  UNL1        0.1548
     36 C         139.8689  140.4823  170.0368 C.3     1  UNL1        0.0754
     37 O         142.2505  139.3937  169.4998 O.2     1  UNL1       -0.3578
     38 N         143.0105  139.0695  168.2479 N.ar    1  UNL1       -0.0774
@<TRIPOS>BOND
     1     9    10    1
     2    10    11   ar
     3    11    12   ar
     4    12    13   ar
     5    13    14   ar
     6    14     3    1
     7     3     4   ar
     8     4     5   ar
     9     5     6   ar
    10     6     2    1
    11     2     1    1
    12     1    20    1
    13    20    21    1
    14    21    22    1
    15    22    23    1
    16    23    24    1
    17    24    25    1
    18    25    26   ar
    19    26    27   ar
    20    27    28   ar
    21    28    33    1
    22    33    34   ar
    23    34    35   ar
    24    35    36    1
    25    35    37   ar
    26    37    38   ar
    27    28    29   ar
    28    29    30   ar
    29    30    31    1
    30    31    32    1
    31     6     7   ar
    32     7     8    1
    33    14    15   ar
    34    15    16   ar
    35    16    17   ar
    36    17    18   ar
    37    18    19   ar
    38    19    10   ar
    39    18    13   ar
    40     7     3   ar
    41    32    22    1
    42    30    25   ar
    43    38    33   ar
@<TRIPOS>MOLECULE
*****
 38 43 0 0 0
SMALL
GASTEIGER

@<TRIPOS>ATOM
      1 C         141.9242  139.5686  157.0339 C.3     1  UNL1        0.0666
      2 S         140.7781  140.5356  156.9976 S.3     1  UNL1       -0.0756
      3 C         138.6369  141.0016  160.2013 C.ar    1  UNL1        0.1669
      4 N         137.7658  140.0780  159.4022 N.ar    1  UNL1       -0.1282
      5 N         138.4619  139.7911  158.1049 N.ar    1  UNL1       -0.1221
      6 C         139.7632  140.5373  158.1021 C.ar    1  UNL1        0.1932
      7 N         139.8712  141.2854  159.3977 N.ar    1  UNL1       -0.2884
      8 C         141.0133  142.1633  159.8163 C.3     1  UNL1        0.1340
      9 C         138.4227  137.9118  166.3379 C.3     1  UNL1        0.0521
     10 C         138.3990  138.8203  165.1445 C.ar    1  UNL1        0.0593
     11 C         138.7081  138.2761  163.7813 C.ar    1  UNL1        0.0147
     12 C         138.6843  139.1846  162.5880 C.ar    1  UNL1        0.0028
     13 C         138.3515  140.6373  162.7578 C.ar    1  UNL1        0.0206
     14 C         138.3277  141.5458  161.5644 C.ar    1  UNL1        0.0374
     15 C         137.9949  142.9985  161.7343 C.ar    1  UNL1        0.0031
     16 C         137.6857  143.5427  163.0975 C.ar    1  UNL1        0.0016
     17 C         137.7095  142.6343  164.2908 C.ar    1  UNL1        0.0191
     18 C         138.0423  141.1815  164.1210 C.ar    1  UNL1        0.0810
     19 N         138.0661  140.2731  165.3144 N.ar    1  UNL1       -0.2497
     20 C         141.8156  138.3065  157.8372 C.3     1  UNL1        0.0294
     21 C         142.9316  137.9030  158.7546 C.3     1  UNL1        0.0730
     22 N         142.9630  138.4102  160.1659 N.3     1  UNL1       -0.2720
     23 C         143.7581  139.6624  160.3899 C.3     1  UNL1        0.0768
     24 C         143.9817  140.4118  161.6700 C.3     1  UNL1        0.0433
     25 C         143.4655  140.0942  163.0420 C.ar    1  UNL1       -0.0247
     26 C         143.9263  141.1062  164.0487 C.ar    1  UNL1       -0.0045
     27 C         143.5198  140.9728  165.4864 C.ar    1  UNL1        0.0013
     28 C         142.6525  139.8273  165.9175 C.ar    1  UNL1        0.0206
     29 C         142.1917  138.8153  164.9107 C.ar    1  UNL1       -0.0029
     30 C         142.5981  138.9487  163.4730 C.ar    1  UNL1       -0.0246
     31 C         142.0328  137.8380  162.6384 C.3     1  UNL1        0.0433
     32 C         142.1953  137.5984  161.1665 C.3     1  UNL1        0.0768
     33 C         142.2461  139.6939  167.3552 C.ar    1  UNL1        0.1227
     34 C         140.9771  140.2120  167.9643 C.ar    1  UNL1        0.0580
     35 C         140.9840  139.8572  169.4218 C.ar    1  UNL1        0.1548
     36 C         139.9067  140.1827  170.4135 C.3     1  UNL1        0.0754
     37 O         142.2572  139.1199  169.7133 O.2     1  UNL1       -0.3578
     38 N         143.0373  139.0189  168.4361 N.ar    1  UNL1       -0.0774
@<TRIPOS>BOND
     1     9    10    1
     2    10    11   ar
     3    11    12   ar
     4    12    13   ar
     5    13    14   ar
     6    14     3    1
     7     3     4   ar
     8     4     5   ar
     9     5     6   ar
    10     6     2    1
    11     2     1    1
    12     1    20    1
    13    20    21    1
    14    21    22    1
    15    22    23    1
    16    23    24    1
    17    24    25    1
    18    25    26   ar
    19    26    27   ar
    20    27    28   ar
    21    28    33    1
    22    33    34   ar
    23    34    35   ar
    24    35    36    1
    25    35    37   ar
    26    37    38   ar
    27    28    29   ar
    28    29    30   ar
    29    30    31    1
    30    31    32    1
    31     6     7   ar
    32     7     8    1
    33    14    15   ar
    34    15    16   ar
    35    16    17   ar
    36    17    18   ar
    37    18    19   ar
    38    19    10   ar
    39    18    13   ar
    40     7     3   ar
    41    32    22    1
    42    30    25   ar
    43    38    33   ar
@<TRIPOS>MOLECULE
*****
 38 43 0 0 0
SMALL
GASTEIGER

@<TRIPOS>ATOM
      1 C         139.8052  144.4279  157.4039 C.3     1  UNL1        0.0666
      2 S         139.1189  143.1101  157.6097 S.3     1  UNL1       -0.0756
      3 C         139.5899  141.0064  160.8374 C.ar    1  UNL1        0.1669
      4 N         138.5628  142.0026  161.2880 N.ar    1  UNL1       -0.1282
      5 N         138.2615  142.9119  160.1337 N.ar    1  UNL1       -0.1221
      6 C         139.1022  142.4777  158.9698 C.ar    1  UNL1        0.1932
      7 N         139.9231  141.3001  159.4047 N.ar    1  UNL1       -0.2884
      8 C         140.9050  140.5481  158.5559 C.3     1  UNL1        0.1340
      9 C         138.2326  139.0301  167.2797 C.3     1  UNL1        0.0521
     10 C         138.7194  139.2499  165.8780 C.ar    1  UNL1        0.0593
     11 C         138.1293  140.3471  165.0425 C.ar    1  UNL1        0.0147
     12 C         138.6162  140.5668  163.6408 C.ar    1  UNL1        0.0028
     13 C         139.6931  139.6895  163.0746 C.ar    1  UNL1        0.0206
     14 C         140.1799  139.9093  161.6729 C.ar    1  UNL1        0.0374
     15 C         141.2568  139.0319  161.1068 C.ar    1  UNL1        0.0031
     16 C         141.8469  137.9348  161.9423 C.ar    1  UNL1        0.0016
     17 C         141.3601  137.7150  163.3439 C.ar    1  UNL1        0.0191
     18 C         140.2832  138.5923  163.9101 C.ar    1  UNL1        0.0810
     19 N         139.7964  138.3725  165.3118 N.ar    1  UNL1       -0.2497
     20 C         141.2709  144.5634  157.6932 C.3     1  UNL1        0.0294
     21 C         141.7299  145.3341  158.8954 C.3     1  UNL1        0.0730
     22 N         141.6400  144.7183  160.2602 N.3     1  UNL1       -0.2720
     23 C         140.6743  145.3695  161.2055 C.3     1  UNL1        0.0768
     24 C         140.3577  144.9959  162.6234 C.3     1  UNL1        0.0433
     25 C         140.9286  143.8792  163.4461 C.ar    1  UNL1       -0.0247
     26 C         140.3364  143.8556  164.8241 C.ar    1  UNL1       -0.0045
     27 C         140.7727  142.8129  165.8101 C.ar    1  UNL1        0.0013
     28 C         141.8012  141.7937  165.4183 C.ar    1  UNL1        0.0206
     29 C         142.3934  141.8174  164.0402 C.ar    1  UNL1       -0.0029
     30 C         141.9571  142.8601  163.0542 C.ar    1  UNL1       -0.0246
     31 C         142.6687  142.7060  161.7428 C.3     1  UNL1        0.0433
     32 C         142.5275  143.5331  160.4993 C.3     1  UNL1        0.0768
     33 C         142.2376  140.7510  166.4043 C.ar    1  UNL1        0.1227
     34 C         141.8614  140.6974  167.8553 C.ar    1  UNL1        0.0580
     35 C         142.5180  139.4920  168.4602 C.ar    1  UNL1        0.1548
     36 C         142.4113  139.0549  169.8912 C.3     1  UNL1        0.0754
     37 O         143.3000  138.8006  167.3830 O.2     1  UNL1       -0.3578
     38 N         143.1268  139.5787  166.1124 N.ar    1  UNL1       -0.0774
@<TRIPOS>BOND
     1     9    10    1
     2    10    11   ar
     3    11    12   ar
     4    12    13   ar
     5    13    14   ar
     6    14     3    1
     7     3     4   ar
     8     4     5   ar
     9     5     6   ar
    10     6     2    1
    11     2     1    1
    12     1    20    1
    13    20    21    1
    14    21    22    1
    15    22    23    1
    16    23    24    1
    17    24    25    1
    18    25    26   ar
    19    26    27   ar
    20    27    28   ar
    21    28    33    1
    22    33    34   ar
    23    34    35   ar
    24    35    36    1
    25    35    37   ar
    26    37    38   ar
    27    28    29   ar
    28    29    30   ar
    29    30    31    1
    30    31    32    1
    31     6     7   ar
    32     7     8    1
    33    14    15   ar
    34    15    16   ar
    35    16    17   ar
    36    17    18   ar
    37    18    19   ar
    38    19    10   ar
    39    18    13   ar
    40     7     3   ar
    41    32    22    1
    42    30    25   ar
    43    38    33   ar
@<TRIPOS>MOLECULE
*****
 38 43 0 0 0
SMALL
GASTEIGER

@<TRIPOS>ATOM
      1 C         140.6850  139.8722  170.7377 C.3     1  UNL1        0.0666
      2 S         139.4565  140.3723  170.0373 S.3     1  UNL1       -0.0756
      3 C         139.6505  141.2796  166.2683 C.ar    1  UNL1        0.1669
      4 N         139.1172  139.8791  166.2023 N.ar    1  UNL1       -0.1282
      5 N         138.9796  139.3688  167.6061 N.ar    1  UNL1       -0.1221
      6 C         139.4279  140.4539  168.5397 C.ar    1  UNL1        0.1932
      7 N         139.8425  141.6347  167.7129 N.ar    1  UNL1       -0.2884
      8 C         140.3586  142.9415  168.2385 C.3     1  UNL1        0.1340
      9 C         140.3280  139.8323  159.5827 C.3     1  UNL1        0.0521
     10 C         140.2312  140.4164  160.9610 C.ar    1  UNL1        0.0593
     11 C         139.9409  139.5273  162.1337 C.ar    1  UNL1        0.0147
     12 C         139.8441  140.1114  163.5119 C.ar    1  UNL1        0.0028
     13 C         140.0376  141.5846  163.7174 C.ar    1  UNL1        0.0206
     14 C         139.9408  142.1687  165.0957 C.ar    1  UNL1        0.0374
     15 C         140.1343  143.6419  165.3011 C.ar    1  UNL1        0.0031
     16 C         140.4246  144.5310  164.1284 C.ar    1  UNL1        0.0016
     17 C         140.5214  143.9469  162.7503 C.ar    1  UNL1        0.0191
     18 C         140.3279  142.4737  162.5447 C.ar    1  UNL1        0.0810
     19 N         140.4247  141.8897  161.1665 N.ar    1  UNL1       -0.2497
     20 C         141.8849  139.4536  169.9405 C.3     1  UNL1        0.0294
     21 C         142.8869  140.4788  169.4991 C.3     1  UNL1        0.0730
     22 N         143.0937  140.7447  168.0374 N.3     1  UNL1       -0.2720
     23 C         143.4058  142.1658  167.6723 C.3     1  UNL1        0.0768
     24 C         143.6623  142.7475  166.3136 C.3     1  UNL1        0.0433
     25 C         143.6701  142.0519  164.9848 C.ar    1  UNL1       -0.0247
     26 C         143.9727  143.0068  163.8682 C.ar    1  UNL1       -0.0045
     27 C         144.0284  142.5126  162.4530 C.ar    1  UNL1        0.0013
     28 C         143.7815  141.0635  162.1544 C.ar    1  UNL1        0.0206
     29 C         143.4790  140.1086  163.2710 C.ar    1  UNL1       -0.0029
     30 C         143.4233  140.6028  164.6861 C.ar    1  UNL1       -0.0246
     31 C         143.1077  139.4914  165.6427 C.3     1  UNL1        0.0433
     32 C         142.9610  139.5546  167.1342 C.3     1  UNL1        0.0768
     33 C         143.8372  140.5692  160.7392 C.ar    1  UNL1        0.1227
     34 C         143.7558  141.4179  159.5051 C.ar    1  UNL1        0.0580
     35 C         143.8524  140.5127  158.3129 C.ar    1  UNL1        0.1548
     36 C         143.8145  140.9406  156.8757 C.3     1  UNL1        0.0754
     37 O         143.9935  139.1046  158.8102 O.2     1  UNL1       -0.3578
     38 N         143.9841  139.1395  160.3098 N.ar    1  UNL1       -0.0774
@<TRIPOS>BOND
     1     9    10    1
     2    10    11   ar
     3    11    12   ar
     4    12    13   ar
     5    13    14   ar
     6    14     3    1
     7     3     4   ar
     8     4     5   ar
     9     5     6   ar
    10     6     2    1
    11     2     1    1
    12     1    20    1
    13    20    21    1
    14    21    22    1
    15    22    23    1
    16    23    24    1
    17    24    25    1
    18    25    26   ar
    19    26    27   ar
    20    27    28   ar
    21    28    33    1
    22    33    34   ar
    23    34    35   ar
    24    35    36    1
    25    35    37   ar
    26    37    38   ar
    27    28    29   ar
    28    29    30   ar
    29    30    31    1
    30    31    32    1
    31     6     7   ar
    32     7     8    1
    33    14    15   ar
    34    15    16   ar
    35    16    17   ar
    36    17    18   ar
    37    18    19   ar
    38    19    10   ar
    39    18    13   ar
    40     7     3   ar
    41    32    22    1
    42    30    25   ar
    43    38    33   ar
@<TRIPOS>MOLECULE
*****
 38 43 0 0 0
SMALL
GASTEIGER

@<TRIPOS>ATOM
      1 C         143.7779  142.7123  157.7512 C.3     1  UNL1        0.0666
      2 S         142.2900  142.5335  157.8163 S.3     1  UNL1       -0.0756
      3 C         140.7173  141.9721  161.3201 C.ar    1  UNL1        0.1669
      4 N         140.6043  140.5984  160.7281 N.ar    1  UNL1       -0.1282
      5 N         141.1797  140.6416  159.3436 N.ar    1  UNL1       -0.1221
      6 C         141.6483  142.0419  159.0798 C.ar    1  UNL1        0.1932
      7 N         141.3626  142.8641  160.3014 N.ar    1  UNL1       -0.2884
      8 C         141.6684  144.3225  160.4739 C.3     1  UNL1        0.1340
      9 C         138.0738  138.2763  166.4780 C.3     1  UNL1        0.0521
     10 C         138.6215  139.3026  165.5310 C.ar    1  UNL1        0.0593
     11 C         139.0743  138.8930  164.1609 C.ar    1  UNL1        0.0147
     12 C         139.6219  139.9194  163.2140 C.ar    1  UNL1        0.0028
     13 C         139.7169  141.3553  163.6372 C.ar    1  UNL1        0.0206
     14 C         140.2646  142.3816  162.6902 C.ar    1  UNL1        0.0374
     15 C         140.3596  143.8175  163.1135 C.ar    1  UNL1        0.0031
     16 C         139.9068  144.2271  164.4836 C.ar    1  UNL1        0.0016
     17 C         139.3592  143.2008  165.4305 C.ar    1  UNL1        0.0191
     18 C         139.2642  141.7649  165.0073 C.ar    1  UNL1        0.0810
     19 N         138.7165  140.7386  165.9543 N.ar    1  UNL1       -0.2497
     20 C         144.6646  141.9747  158.7104 C.3     1  UNL1        0.0294
     21 C         145.1392  142.6493  159.9633 C.3     1  UNL1        0.0730
     22 N         144.5957  142.2252  161.2955 N.3     1  UNL1       -0.2720
     23 C         144.2809  140.7652  161.4350 C.3     1  UNL1        0.0768
     24 C         143.7315  140.0365  162.6255 C.3     1  UNL1        0.0433
     25 C         143.3614  140.5879  163.9704 C.ar    1  UNL1       -0.0247
     26 C         142.8468  139.5124  164.8808 C.ar    1  UNL1       -0.0045
     27 C         142.4200  139.8531  166.2779 C.ar    1  UNL1        0.0013
     28 C         142.5078  141.2693  166.7646 C.ar    1  UNL1        0.0206
     29 C         143.0223  142.3447  165.8542 C.ar    1  UNL1       -0.0029
     30 C         143.4491  142.0040  164.4572 C.ar    1  UNL1       -0.0246
     31 C         143.9287  143.2186  163.7191 C.3     1  UNL1        0.0433
     32 C         144.4390  143.3169  162.3120 C.3     1  UNL1        0.0768
     33 C         142.0810  141.6100  168.1617 C.ar    1  UNL1        0.1227
     34 C         140.8387  142.3574  168.5465 C.ar    1  UNL1        0.0580
     35 C         140.8115  142.4725  170.0419 C.ar    1  UNL1        0.1548
     36 C         139.7459  143.1456  170.8551 C.3     1  UNL1        0.0754
     37 O         142.0370  141.7962  170.5812 O.2     1  UNL1       -0.3578
     38 N         142.8216  141.2631  169.4192 N.ar    1  UNL1       -0.0774
@<TRIPOS>BOND
     1     9    10    1
     2    10    11   ar
     3    11    12   ar
     4    12    13   ar
     5    13    14   ar
     6    14     3    1
     7     3     4   ar
     8     4     5   ar
     9     5     6   ar
    10     6     2    1
    11     2     1    1
    12     1    20    1
    13    20    21    1
    14    21    22    1
    15    22    23    1
    16    23    24    1
    17    24    25    1
    18    25    26   ar
    19    26    27   ar
    20    27    28   ar
    21    28    33    1
    22    33    34   ar
    23    34    35   ar
    24    35    36    1
    25    35    37   ar
    26    37    38   ar
    27    28    29   ar
    28    29    30   ar
    29    30    31    1
    30    31    32    1
    31     6     7   ar
    32     7     8    1
    33    14    15   ar
    34    15    16   ar
    35    16    17   ar
    36    17    18   ar
    37    18    19   ar
    38    19    10   ar
    39    18    13   ar
    40     7     3   ar
    41    32    22    1
    42    30    25   ar
    43    38    33   ar
@<TRIPOS>MOLECULE
*****
 38 43 0 0 0
SMALL
GASTEIGER

@<TRIPOS>ATOM
      1 C         142.0825  143.9383  156.9929 C.3     1  UNL1        0.0666
      2 S         140.6659  144.3280  157.2951 S.3     1  UNL1       -0.0756
      3 C         138.8814  142.8270  160.3980 C.ar    1  UNL1        0.1669
      4 N         138.4280  141.8875  159.3201 N.ar    1  UNL1       -0.1282
      5 N         139.0413  142.3355  158.0267 N.ar    1  UNL1       -0.1221
      6 C         139.8737  143.5518  158.3051 C.ar    1  UNL1        0.1932
      7 N         139.7749  143.8556  159.7706 N.ar    1  UNL1       -0.2884
      8 C         140.4510  144.9890  160.4836 C.3     1  UNL1        0.1340
      9 C         139.0258  137.5609  164.8136 C.3     1  UNL1        0.0521
     10 C         138.8961  138.8585  164.0723 C.ar    1  UNL1        0.0593
     11 C         139.2705  138.9342  162.6217 C.ar    1  UNL1        0.0147
     12 C         139.1408  140.2318  161.8805 C.ar    1  UNL1        0.0028
     13 C         138.6367  141.4537  162.5898 C.ar    1  UNL1        0.0206
     14 C         138.5070  142.7513  161.8485 C.ar    1  UNL1        0.0374
     15 C         138.0030  143.9730  162.5579 C.ar    1  UNL1        0.0031
     16 C         137.6286  143.8972  164.0084 C.ar    1  UNL1        0.0016
     17 C         137.7583  142.5997  164.7496 C.ar    1  UNL1        0.0191
     18 C         138.2623  141.3779  164.0404 C.ar    1  UNL1        0.0810
     19 N         138.3920  140.0803  164.7816 N.ar    1  UNL1       -0.2497
     20 C         143.0566  143.7236  158.1133 C.3     1  UNL1        0.0294
     21 C         143.6120  142.3545  158.3722 C.3     1  UNL1        0.0730
     22 N         143.3656  141.6821  159.6902 N.3     1  UNL1       -0.2720
     23 C         143.5419  140.1925  159.7038 C.3     1  UNL1        0.0768
     24 C         143.3716  139.2410  160.8509 C.3     1  UNL1        0.0433
     25 C         142.9831  139.5442  162.2676 C.ar    1  UNL1       -0.0247
     26 C         142.9269  138.2970  163.0992 C.ar    1  UNL1       -0.0045
     27 C         142.5564  138.3794  164.5504 C.ar    1  UNL1        0.0013
     28 C         142.2422  139.7088  165.1701 C.ar    1  UNL1        0.0206
     29 C         142.2984  140.9559  164.3384 C.ar    1  UNL1       -0.0029
     30 C         142.6689  140.8736  162.8872 C.ar    1  UNL1       -0.0246
     31 C         142.6655  142.2282  162.2431 C.3     1  UNL1        0.0433
     32 C         142.9756  142.5880  160.8202 C.3     1  UNL1        0.0768
     33 C         141.8717  139.7911  166.6212 C.ar    1  UNL1        0.1227
     34 C         140.6369  140.4328  167.1809 C.ar    1  UNL1        0.0580
     35 C         140.6730  140.2845  168.6731 C.ar    1  UNL1        0.1548
     36 C         139.6343  140.7822  169.6340 C.3     1  UNL1        0.0754
     37 O         141.9303  139.5511  169.0357 O.2     1  UNL1       -0.3578
     38 N         142.6712  139.2461  167.7676 N.ar    1  UNL1       -0.0774
@<TRIPOS>BOND
     1     9    10    1
     2    10    11   ar
     3    11    12   ar
     4    12    13   ar
     5    13    14   ar
     6    14     3    1
     7     3     4   ar
     8     4     5   ar
     9     5     6   ar
    10     6     2    1
    11     2     1    1
    12     1    20    1
    13    20    21    1
    14    21    22    1
    15    22    23    1
    16    23    24    1
    17    24    25    1
    18    25    26   ar
    19    26    27   ar
    20    27    28   ar
    21    28    33    1
    22    33    34   ar
    23    34    35   ar
    24    35    36    1
    25    35    37   ar
    26    37    38   ar
    27    28    29   ar
    28    29    30   ar
    29    30    31    1
    30    31    32    1
    31     6     7   ar
    32     7     8    1
    33    14    15   ar
    34    15    16   ar
    35    16    17   ar
    36    17    18   ar
    37    18    19   ar
    38    19    10   ar
    39    18    13   ar
    40     7     3   ar
    41    32    22    1
    42    30    25   ar
    43    38    33   ar
@<TRIPOS>MOLECULE
*****
 38 43 0 0 0
SMALL
GASTEIGER

@<TRIPOS>ATOM
      1 C         141.3698  139.8398  169.6240 C.3     1  UNL1        0.0666
      2 S         140.0739  140.4744  169.2145 S.3     1  UNL1       -0.0756
      3 C         139.4534  141.6806  165.5778 C.ar    1  UNL1        0.1669
      4 N         140.1636  142.8670  166.1596 N.ar    1  UNL1       -0.1282
      5 N         140.4824  142.5595  167.5926 N.ar    1  UNL1       -0.1221
      6 C         139.9693  141.1831  167.8966 C.ar    1  UNL1        0.1932
      7 N         139.3335  140.6400  166.6514 N.ar    1  UNL1       -0.2884
      8 C         138.6904  139.2927  166.5054 C.3     1  UNL1        0.1340
      9 C         140.2069  145.8309  160.1503 C.3     1  UNL1        0.0521
     10 C         139.8930  144.7624  161.1552 C.ar    1  UNL1        0.0593
     11 C         140.3950  144.8863  162.5633 C.ar    1  UNL1        0.0147
     12 C         140.0811  143.8177  163.5681 C.ar    1  UNL1        0.0028
     13 C         139.2654  142.6252  163.1649 C.ar    1  UNL1        0.0206
     14 C         138.9515  141.5567  164.1698 C.ar    1  UNL1        0.0374
     15 C         138.1358  140.3643  163.7665 C.ar    1  UNL1        0.0031
     16 C         137.6339  140.2404  162.3584 C.ar    1  UNL1        0.0016
     17 C         137.9477  141.3089  161.3536 C.ar    1  UNL1        0.0191
     18 C         138.7634  142.5013  161.7568 C.ar    1  UNL1        0.0810
     19 N         139.0773  143.5699  160.7519 N.ar    1  UNL1       -0.2497
     20 C         142.5941  140.0203  168.7762 C.3     1  UNL1        0.0294
     21 C         142.9057  139.0345  167.6894 C.3     1  UNL1        0.0730
     22 N         142.6689  139.4007  166.2542 N.3     1  UNL1       -0.2720
     23 C         141.9423  138.3771  165.4328 C.3     1  UNL1        0.0768
     24 C         141.5574  138.4421  163.9844 C.3     1  UNL1        0.0433
     25 C         141.8039  139.5465  162.9999 C.ar    1  UNL1       -0.0247
     26 C         141.2526  139.2074  161.6467 C.ar    1  UNL1       -0.0045
     27 C         141.3937  140.1806  160.5140 C.ar    1  UNL1        0.0013
     28 C         142.0861  141.4928  160.7344 C.ar    1  UNL1        0.0206
     29 C         142.6374  141.8319  162.0876 C.ar    1  UNL1       -0.0029
     30 C         142.4963  140.8587  163.2203 C.ar    1  UNL1       -0.0246
     31 C         143.1132  141.3907  164.4799 C.3     1  UNL1        0.0433
     32 C         143.1899  140.7417  165.8301 C.3     1  UNL1        0.0768
     33 C         142.2273  142.4660  159.6017 C.ar    1  UNL1        0.1227
     34 C         141.4125  142.4773  158.3424 C.ar    1  UNL1        0.0580
     35 C         141.8896  143.6170  157.4918 C.ar    1  UNL1        0.1548
     36 C         141.3516  143.9969  156.1442 C.3     1  UNL1        0.0754
     37 O         142.9992  144.3101  158.2256 O.2     1  UNL1       -0.3578
     38 N         143.2080  143.5988  159.5296 N.ar    1  UNL1       -0.0774
@<TRIPOS>BOND
     1     9    10    1
     2    10    11   ar
     3    11    12   ar
     4    12    13   ar
     5    13    14   ar
     6    14     3    1
     7     3     4   ar
     8     4     5   ar
     9     5     6   ar
    10     6     2    1
    11     2     1    1
    12     1    20    1
    13    20    21    1
    14    21    22    1
    15    22    23    1
    16    23    24    1
    17    24    25    1
    18    25    26   ar
    19    26    27   ar
    20    27    28   ar
    21    28    33    1
    22    33    34   ar
    23    34    35   ar
    24    35    36    1
    25    35    37   ar
    26    37    38   ar
    27    28    29   ar
    28    29    30   ar
    29    30    31    1
    30    31    32    1
    31     6     7   ar
    32     7     8    1
    33    14    15   ar
    34    15    16   ar
    35    16    17   ar
    36    17    18   ar
    37    18    19   ar
    38    19    10   ar
    39    18    13   ar
    40     7     3   ar
    41    32    22    1
    42    30    25   ar
    43    38    33   ar
@<TRIPOS>MOLECULE
*****
 38 43 0 0 0
SMALL
GASTEIGER

@<TRIPOS>ATOM
      1 C         143.0986  142.5721  156.9993 C.3     1  UNL1        0.0666
      2 S         142.7533  141.1246  156.8113 S.3     1  UNL1       -0.0756
      3 C         141.9189  139.0732  159.9990 C.ar    1  UNL1        0.1669
      4 N         143.2694  138.5239  159.6460 N.ar    1  UNL1       -0.1282
      5 N         143.7462  139.2255  158.4090 N.ar    1  UNL1       -0.1221
      6 C         142.6906  140.2084  157.9974 C.ar    1  UNL1        0.1932
      7 N         141.5613  140.1143  158.9801 N.ar    1  UNL1       -0.2884
      8 C         140.2963  140.9199  158.9493 C.3     1  UNL1        0.1340
      9 C         143.3766  138.7070  166.7066 C.3     1  UNL1        0.0521
     10 C         142.8011  138.6940  165.3214 C.ar    1  UNL1        0.0593
     11 C         143.6455  139.1123  164.1544 C.ar    1  UNL1        0.0147
     12 C         143.0700  139.0993  162.7693 C.ar    1  UNL1        0.0028
     13 C         141.6500  138.6680  162.5511 C.ar    1  UNL1        0.0206
     14 C         141.0745  138.6550  161.1659 C.ar    1  UNL1        0.0374
     15 C         139.6545  138.2236  160.9479 C.ar    1  UNL1        0.0031
     16 C         138.8100  137.8053  162.1149 C.ar    1  UNL1        0.0016
     17 C         139.3855  137.8183  163.5000 C.ar    1  UNL1        0.0191
     18 C         140.8055  138.2497  163.7181 C.ar    1  UNL1        0.0810
     19 N         141.3810  138.2627  165.1033 N.ar    1  UNL1       -0.2497
     20 C         143.5336  143.0707  158.3456 C.3     1  UNL1        0.0294
     21 C         142.5332  143.6924  159.2743 C.3     1  UNL1        0.0730
     22 N         142.5940  143.4032  160.7449 N.3     1  UNL1       -0.2720
     23 C         143.9372  143.5827  161.3884 C.3     1  UNL1        0.0768
     24 C         144.3217  143.3761  162.8235 C.3     1  UNL1        0.0433
     25 C         143.4583  142.9389  163.9694 C.ar    1  UNL1       -0.0247
     26 C         144.2418  142.8577  165.2460 C.ar    1  UNL1       -0.0045
     27 C         143.5639  142.4380  166.5166 C.ar    1  UNL1        0.0013
     28 C         142.1026  142.0995  166.5107 C.ar    1  UNL1        0.0206
     29 C         141.3192  142.1807  165.2340 C.ar    1  UNL1       -0.0029
     30 C         141.9970  142.6004  163.9635 C.ar    1  UNL1       -0.0246
     31 C         141.0383  142.6154  162.8100 C.3     1  UNL1        0.0433
     32 C         141.3040  142.9727  161.3776 C.3     1  UNL1        0.0768
     33 C         141.4248  141.6797  167.7812 C.ar    1  UNL1        0.1227
     34 C         140.0669  141.0521  167.8903 C.ar    1  UNL1        0.0580
     35 C         139.7887  140.7984  169.3423 C.ar    1  UNL1        0.1548
     36 C         138.5431  140.1821  169.9068 C.3     1  UNL1        0.0754
     37 O         140.9748  141.2693  170.1306 O.2     1  UNL1       -0.3578
     38 N         141.9860  141.8140  169.1658 N.ar    1  UNL1       -0.0774
@<TRIPOS>BOND
     1     9    10    1
     2    10    11   ar
     3    11    12   ar
     4    12    13   ar
     5    13    14   ar
     6    14     3    1
     7     3     4   ar
     8     4     5   ar
     9     5     6   ar
    10     6     2    1
    11     2     1    1
    12     1    20    1
    13    20    21    1
    14    21    22    1
    15    22    23    1
    16    23    24    1
    17    24    25    1
    18    25    26   ar
    19    26    27   ar
    20    27    28   ar
    21    28    33    1
    22    33    34   ar
    23    34    35   ar
    24    35    36    1
    25    35    37   ar
    26    37    38   ar
    27    28    29   ar
    28    29    30   ar
    29    30    31    1
    30    31    32    1
    31     6     7   ar
    32     7     8    1
    33    14    15   ar
    34    15    16   ar
    35    16    17   ar
    36    17    18   ar
    37    18    19   ar
    38    19    10   ar
    39    18    13   ar
    40     7     3   ar
    41    32    22    1
    42    30    25   ar
    43    38    33   ar
