@<TRIPOS>MOLECULE
*****
 39 43 0 0 0
SMALL
GASTEIGER

@<TRIPOS>ATOM
      1 N         143.0738  137.2172  160.1054 N.am    1  UNL1       -0.3018
      2 C         142.6696  137.9906  158.8854 C.2     1  UNL1        0.2425
      3 O         142.1357  139.3856  159.0244 O.2     1  UNL1       -0.2733
      4 H         143.4242  136.3017  160.0142 H       1  UNL1        0.1495
      5 N         142.7607  138.7176  163.3864 N.3     1  UNL1       -0.2711
      6 C         141.8557  137.9218  162.4933 C.3     1  UNL1        0.0933
      7 C         142.9442  137.8387  161.4644 C.3     1  UNL1        0.1035
      8 C         143.8491  138.6345  162.3575 C.3     1  UNL1        0.0933
      9 C         142.3717  140.5820  167.4635 C.3     1  UNL1        0.0255
     10 C         141.9775  141.3593  166.2426 C.3     1  UNL1        0.0058
     11 C         142.1072  140.7378  164.8836 C.3     1  UNL1        0.0163
     12 C         142.6311  139.3391  164.7454 C.3     1  UNL1        0.0576
     13 C         143.0253  138.5619  165.9662 C.3     1  UNL1        0.0163
     14 C         142.8957  139.1833  167.3253 C.3     1  UNL1        0.0058
     15 C         141.1778  140.7277  169.7663 C.ar    1  UNL1        0.1538
     16 C         141.0481  141.3492  171.1254 C.ar    1  UNL1        0.1353
     17 N         141.9828  142.4465  171.5405 N.ar    1  UNL1       -0.2392
     18 C         143.0471  142.9223  170.5967 C.ar    1  UNL1        0.0988
     19 C         143.1767  142.3009  169.2377 C.ar    1  UNL1        0.0194
     20 C         142.2421  141.2035  168.8225 C.ar    1  UNL1        0.0146
     21 C         139.0865  139.9330  168.4454 C.3     1  UNL1        0.2525
     22 O         140.2432  139.6304  169.3512 O.3     1  UNL1       -0.4702
     23 C         142.7992  137.3692  157.5264 C.3     1  UNL1        0.1747
     24 N         142.8758  135.8775  157.3879 N.pl3   1  UNL1       -0.3106
     25 H         143.0776  135.3200  158.1738 H       1  UNL1        0.1486
     26 C         142.6449  135.2354  156.0521 C.ar    1  UNL1        0.1320
     27 N         141.9927  136.0141  154.9483 N.ar    1  UNL1       -0.2092
     28 C         141.7619  135.3720  153.6126 C.ar    1  UNL1        0.2000
     29 N         142.1833  133.9512  153.3805 N.ar    1  UNL1       -0.2239
     30 C         142.8356  133.1726  154.4842 C.ar    1  UNL1        0.0857
     31 C         143.2570  131.7518  154.2521 C.ar    1  UNL1        0.0192
     32 C         143.9093  130.9732  155.3558 C.ar    1  UNL1        0.0054
     33 C         144.1402  131.6153  156.6917 C.ar    1  UNL1        0.0716
     34 C         143.7187  133.0361  156.9238 C.ar    1  UNL1        0.0081
     35 C         143.0664  133.8147  155.8200 C.ar    1  UNL1        0.0491
     36 C         144.7924  130.8367  157.7954 C.3     1  UNL1        0.4186
     37 F         145.4447  130.0580  158.8992 F       1  UNL1       -0.1659
     38 F         145.7311  131.9793  158.0468 F       1  UNL1       -0.1659
     39 F         143.8538  129.6940  157.5440 F       1  UNL1       -0.1659
@<TRIPOS>BOND
     1    21    22    1
     2    22    15    1
     3    15    16   ar
     4    16    17   ar
     5    17    18   ar
     6    18    19   ar
     7    19    20   ar
     8     9    20    1
     9     9    10    1
    10    10    11    1
    11    11    12    1
    12    12     5    1
    13     5     6    1
    14     6     7    1
    15     7     1    1
    16     1     2   am
    17     2     3    2
    18     2    23    1
    19    23    24    1
    20    24    26    1
    21    26    27   ar
    22    27    28   ar
    23    28    29   ar
    24    29    30   ar
    25    30    31   ar
    26    31    32   ar
    27    32    33   ar
    28    33    36    1
    29    36    37    1
    30    36    38    1
    31    36    39    1
    32    33    34   ar
    33    34    35   ar
    34     7     8    1
    35    12    13    1
    36    13    14    1
    37    20    15   ar
    38    14     9    1
    39     8     5    1
    40    35    26   ar
    41    35    30   ar
    42     1     4    1
    43    24    25    1
@<TRIPOS>MOLECULE
*****
 39 43 0 0 0
SMALL
GASTEIGER

@<TRIPOS>ATOM
      1 N         143.9740  139.9736  159.7665 N.am    1  UNL1       -0.3018
      2 C         142.9283  139.6535  158.7398 C.2     1  UNL1        0.2425
      3 O         141.4815  139.6052  159.1327 O.2     1  UNL1       -0.2733
      4 H         144.9236  140.0053  159.5086 H       1  UNL1        0.1495
      5 N         143.0054  140.6299  163.1936 N.3     1  UNL1       -0.2711
      6 C         143.0509  141.4382  161.9309 C.3     1  UNL1        0.0933
      7 C         143.5728  140.2454  161.1861 C.3     1  UNL1        0.1035
      8 C         143.5273  139.4371  162.4487 C.3     1  UNL1        0.0933
      9 C         141.8018  141.4455  167.4523 C.3     1  UNL1        0.0255
     10 C         141.0575  140.4234  166.6451 C.3     1  UNL1        0.0058
     11 C         141.4587  140.1515  165.2256 C.3     1  UNL1        0.0163
     12 C         142.6042  140.9017  164.6132 C.3     1  UNL1        0.0576
     13 C         143.3485  141.9237  165.4202 C.3     1  UNL1        0.0163
     14 C         142.9473  142.1956  166.8399 C.3     1  UNL1        0.0058
     15 C         142.0391  140.9504  169.9917 C.ar    1  UNL1        0.1538
     16 C         141.6379  141.2223  171.4113 C.ar    1  UNL1        0.1353
     17 N         140.5981  142.2610  171.7109 N.ar    1  UNL1       -0.2392
     18 C         139.9596  143.0279  170.5910 C.ar    1  UNL1        0.0988
     19 C         140.3608  142.7561  169.1715 C.ar    1  UNL1        0.0194
     20 C         141.4006  141.7173  168.8718 C.ar    1  UNL1        0.0146
     21 C         142.7997  138.4662  169.9796 C.3     1  UNL1        0.2525
     22 O         143.0789  139.9116  169.6920 O.3     1  UNL1       -0.4702
     23 C         143.3295  139.3817  157.3202 C.3     1  UNL1        0.1747
     24 N         143.5748  137.9731  156.8667 N.pl3   1  UNL1       -0.3106
     25 H         144.4393  137.5399  157.0515 H       1  UNL1        0.1486
     26 C         142.5027  137.2244  156.1317 C.ar    1  UNL1        0.1320
     27 N         141.4161  137.9754  155.4210 N.ar    1  UNL1       -0.2092
     28 C         140.3441  137.2268  154.6859 C.ar    1  UNL1        0.2000
     29 N         140.3588  135.7270  154.6616 N.ar    1  UNL1       -0.2239
     30 C         141.4454  134.9760  155.3723 C.ar    1  UNL1        0.0857
     31 C         141.4600  133.4762  155.3480 C.ar    1  UNL1        0.0192
     32 C         142.5466  132.7252  156.0587 C.ar    1  UNL1        0.0054
     33 C         143.6187  133.4739  156.7938 C.ar    1  UNL1        0.0716
     34 C         143.6040  134.9736  156.8181 C.ar    1  UNL1        0.0081
     35 C         142.5173  135.7247  156.1073 C.ar    1  UNL1        0.0491
     36 C         144.7053  132.7228  157.5045 C.3     1  UNL1        0.4186
     37 F         145.7920  131.9717  158.2152 F       1  UNL1       -0.1659
     38 F         144.5423  133.6165  158.6981 F       1  UNL1       -0.1659
     39 F         144.8683  131.8292  156.3109 F       1  UNL1       -0.1659
@<TRIPOS>BOND
     1    21    22    1
     2    22    15    1
     3    15    16   ar
     4    16    17   ar
     5    17    18   ar
     6    18    19   ar
     7    19    20   ar
     8     9    20    1
     9     9    10    1
    10    10    11    1
    11    11    12    1
    12    12     5    1
    13     5     6    1
    14     6     7    1
    15     7     1    1
    16     1     2   am
    17     2     3    2
    18     2    23    1
    19    23    24    1
    20    24    26    1
    21    26    27   ar
    22    27    28   ar
    23    28    29   ar
    24    29    30   ar
    25    30    31   ar
    26    31    32   ar
    27    32    33   ar
    28    33    36    1
    29    36    37    1
    30    36    38    1
    31    36    39    1
    32    33    34   ar
    33    34    35   ar
    34     7     8    1
    35    12    13    1
    36    13    14    1
    37    20    15   ar
    38    14     9    1
    39     8     5    1
    40    35    26   ar
    41    35    30   ar
    42     1     4    1
    43    24    25    1
@<TRIPOS>MOLECULE
*****
 39 43 0 0 0
SMALL
GASTEIGER

@<TRIPOS>ATOM
      1 N         142.8431  137.6622  157.7384 N.am    1  UNL1       -0.3018
      2 C         143.3673  138.7296  156.8241 C.2     1  UNL1        0.2425
      3 O         143.6776  140.0941  157.3644 O.2     1  UNL1       -0.2733
      4 H         142.6394  136.7667  157.3837 H       1  UNL1        0.1495
      5 N         142.3266  138.3796  161.2502 N.3     1  UNL1       -0.2711
      6 C         141.5664  138.6589  159.9876 C.3     1  UNL1        0.0933
      7 C         142.6291  137.9594  159.1930 C.3     1  UNL1        0.1035
      8 C         143.3892  137.6801  160.4556 C.3     1  UNL1        0.0933
      9 C         141.6847  139.2712  165.6140 C.3     1  UNL1        0.0255
     10 C         141.2667  137.9455  165.0499 C.3     1  UNL1        0.0058
     11 C         141.4807  137.6484  163.5953 C.3     1  UNL1        0.0163
     12 C         142.1126  138.6768  162.7048 C.3     1  UNL1        0.0576
     13 C         142.5306  140.0023  163.2688 C.3     1  UNL1        0.0163
     14 C         142.3166  140.2995  164.7235 C.3     1  UNL1        0.0058
     15 C         140.1017  139.9235  167.5681 C.ar    1  UNL1        0.1538
     16 C         139.8878  140.2207  169.0228 C.ar    1  UNL1        0.1353
     17 N         141.0429  140.1626  169.9779 N.ar    1  UNL1       -0.2392
     18 C         142.4120  139.8074  169.4784 C.ar    1  UNL1        0.0988
     19 C         142.6259  139.5102  168.0238 C.ar    1  UNL1        0.0194
     20 C         141.4708  139.5683  167.0686 C.ar    1  UNL1        0.0146
     21 C         137.9269  138.8816  166.6014 C.3     1  UNL1        0.2525
     22 O         138.9466  139.9816  166.6130 O.3     1  UNL1       -0.4702
     23 C         143.5812  138.4325  155.3695 C.3     1  UNL1        0.1747
     24 N         143.9854  137.0542  154.9370 N.pl3   1  UNL1       -0.3106
     25 H         144.9328  136.7879  154.9637 H       1  UNL1        0.1486
     26 C         142.9460  136.0817  154.4637 C.ar    1  UNL1        0.1320
     27 N         141.9176  136.5122  153.4603 N.ar    1  UNL1       -0.2092
     28 C         140.8783  135.5397  152.9871 C.ar    1  UNL1        0.2000
     29 N         140.8674  134.1366  153.5173 N.ar    1  UNL1       -0.2239
     30 C         141.8958  133.7060  154.5208 C.ar    1  UNL1        0.0857
     31 C         141.8849  132.3029  155.0510 C.ar    1  UNL1        0.0192
     32 C         142.9133  131.8723  156.0544 C.ar    1  UNL1        0.0054
     33 C         143.9527  132.8449  156.5277 C.ar    1  UNL1        0.0716
     34 C         143.9636  134.2480  155.9974 C.ar    1  UNL1        0.0081
     35 C         142.9351  134.6785  154.9940 C.ar    1  UNL1        0.0491
     36 C         144.9811  132.4143  157.5311 C.3     1  UNL1        0.4186
     37 F         146.0096  131.9836  158.5345 F       1  UNL1       -0.1659
     38 F         144.4978  133.4708  158.4798 F       1  UNL1       -0.1659
     39 F         145.4645  131.3578  156.5824 F       1  UNL1       -0.1659
@<TRIPOS>BOND
     1    21    22    1
     2    22    15    1
     3    15    16   ar
     4    16    17   ar
     5    17    18   ar
     6    18    19   ar
     7    19    20   ar
     8     9    20    1
     9     9    10    1
    10    10    11    1
    11    11    12    1
    12    12     5    1
    13     5     6    1
    14     6     7    1
    15     7     1    1
    16     1     2   am
    17     2     3    2
    18     2    23    1
    19    23    24    1
    20    24    26    1
    21    26    27   ar
    22    27    28   ar
    23    28    29   ar
    24    29    30   ar
    25    30    31   ar
    26    31    32   ar
    27    32    33   ar
    28    33    36    1
    29    36    37    1
    30    36    38    1
    31    36    39    1
    32    33    34   ar
    33    34    35   ar
    34     7     8    1
    35    12    13    1
    36    13    14    1
    37    20    15   ar
    38    14     9    1
    39     8     5    1
    40    35    26   ar
    41    35    30   ar
    42     1     4    1
    43    24    25    1
@<TRIPOS>MOLECULE
*****
 39 43 0 0 0
SMALL
GASTEIGER

@<TRIPOS>ATOM
      1 N         141.9035  138.2137  159.5423 N.am    1  UNL1       -0.3018
      2 C         140.6662  138.3641  158.7077 C.2     1  UNL1        0.2425
      3 O         139.4558  139.0433  159.2766 O.2     1  UNL1       -0.2733
      4 H         142.6979  137.7680  159.1689 H       1  UNL1        0.1495
      5 N         141.9682  139.4904  162.9305 N.3     1  UNL1       -0.2711
      6 C         141.1460  138.4735  162.1957 C.3     1  UNL1        0.0933
      7 C         141.9303  138.7426  160.9457 C.3     1  UNL1        0.1035
      8 C         142.7525  139.7594  161.6805 C.3     1  UNL1        0.0933
      9 C         142.0486  141.0768  167.1408 C.3     1  UNL1        0.0255
     10 C         141.5611  141.9472  166.0206 C.3     1  UNL1        0.0058
     11 C         141.5344  141.4184  164.6171 C.3     1  UNL1        0.0163
     12 C         141.9950  140.0192  164.3339 C.3     1  UNL1        0.0576
     13 C         142.4824  139.1489  165.4541 C.3     1  UNL1        0.0163
     14 C         142.5092  139.6777  166.8576 C.3     1  UNL1        0.0058
     15 C         140.9396  141.3107  169.4787 C.ar    1  UNL1        0.1538
     16 C         140.9665  141.8396  170.8821 C.ar    1  UNL1        0.1353
     17 N         142.1290  142.6632  171.3511 N.ar    1  UNL1       -0.2392
     18 C         143.2647  142.9581  170.4167 C.ar    1  UNL1        0.0988
     19 C         143.2380  142.4293  169.0133 C.ar    1  UNL1        0.0194
     20 C         142.0754  141.6056  168.5443 C.ar    1  UNL1        0.0146
     21 C         138.6393  140.1957  169.9428 C.3     1  UNL1        0.2525
     22 O         139.7771  140.4870  169.0097 O.3     1  UNL1       -0.4702
     23 C         140.6393  137.8353  157.3043 C.3     1  UNL1        0.1747
     24 N         141.7587  136.9690  156.8076 N.pl3   1  UNL1       -0.3106
     25 H         142.6222  136.9615  157.2804 H       1  UNL1        0.1486
     26 C         141.5623  136.1142  155.5907 C.ar    1  UNL1        0.1320
     27 N         140.6263  136.5578  154.5057 N.ar    1  UNL1       -0.2092
     28 C         140.4300  135.7031  153.2889 C.ar    1  UNL1        0.2000
     29 N         141.1695  134.4047  153.1570 N.ar    1  UNL1       -0.2239
     30 C         142.1054  133.9611  154.2420 C.ar    1  UNL1        0.0857
     31 C         142.8450  132.6628  154.1101 C.ar    1  UNL1        0.0192
     32 C         143.7809  132.2192  155.1951 C.ar    1  UNL1        0.0054
     33 C         143.9773  133.0740  156.4120 C.ar    1  UNL1        0.0716
     34 C         143.2378  134.3723  156.5439 C.ar    1  UNL1        0.0081
     35 C         142.3018  134.8159  155.4588 C.ar    1  UNL1        0.0491
     36 C         144.9132  132.6304  157.4970 C.3     1  UNL1        0.4186
     37 F         145.8492  132.1869  158.5821 F       1  UNL1       -0.1659
     38 F         145.5649  131.6732  156.5436 F       1  UNL1       -0.1659
     39 F         144.2616  133.5876  158.4505 F       1  UNL1       -0.1659
@<TRIPOS>BOND
     1    21    22    1
     2    22    15    1
     3    15    16   ar
     4    16    17   ar
     5    17    18   ar
     6    18    19   ar
     7    19    20   ar
     8     9    20    1
     9     9    10    1
    10    10    11    1
    11    11    12    1
    12    12     5    1
    13     5     6    1
    14     6     7    1
    15     7     1    1
    16     1     2   am
    17     2     3    2
    18     2    23    1
    19    23    24    1
    20    24    26    1
    21    26    27   ar
    22    27    28   ar
    23    28    29   ar
    24    29    30   ar
    25    30    31   ar
    26    31    32   ar
    27    32    33   ar
    28    33    36    1
    29    36    37    1
    30    36    38    1
    31    36    39    1
    32    33    34   ar
    33    34    35   ar
    34     7     8    1
    35    12    13    1
    36    13    14    1
    37    20    15   ar
    38    14     9    1
    39     8     5    1
    40    35    26   ar
    41    35    30   ar
    42     1     4    1
    43    24    25    1
@<TRIPOS>MOLECULE
*****
 39 43 0 0 0
SMALL
GASTEIGER

@<TRIPOS>ATOM
      1 N         142.2499  144.4779  159.6644 N.am    1  UNL1       -0.3018
      2 C         141.2222  145.3406  158.9939 C.2     1  UNL1        0.2425
      3 O         139.9875  145.7530  159.7392 O.2     1  UNL1       -0.2733
      4 H         143.0603  144.2071  159.1753 H       1  UNL1        0.1495
      5 N         141.7501  143.3911  163.0825 N.3     1  UNL1       -0.2711
      6 C         142.1930  144.6665  162.4291 C.3     1  UNL1        0.0933
      7 C         142.0429  144.0277  161.0803 C.3     1  UNL1        0.1035
      8 C         141.6000  142.7523  161.7337 C.3     1  UNL1        0.0933
      9 C         141.1291  142.0407  167.3300 C.3     1  UNL1        0.0255
     10 C         142.2762  141.4975  166.5303 C.3     1  UNL1        0.0058
     11 C         142.4831  141.9476  165.1146 C.3     1  UNL1        0.0163
     12 C         141.5431  142.9409  164.4983 C.3     1  UNL1        0.0576
     13 C         140.3961  143.4841  165.2979 C.3     1  UNL1        0.0163
     14 C         140.1891  143.0340  166.7137 C.3     1  UNL1        0.0058
     15 C         141.8393  142.0760  169.8288 C.ar    1  UNL1        0.1538
     16 C         141.6323  141.6258  171.2447 C.ar    1  UNL1        0.1353
     17 N         140.5081  140.6902  171.5774 N.ar    1  UNL1       -0.2392
     18 C         139.5908  140.2048  170.4943 C.ar    1  UNL1        0.0988
     19 C         139.7978  140.6549  169.0785 C.ar    1  UNL1        0.0194
     20 C         140.9221  141.5906  168.7457 C.ar    1  UNL1        0.0146
     21 C         144.3668  142.6727  169.9035 C.3     1  UNL1        0.2525
     22 O         142.9635  143.0116  169.4961 O.3     1  UNL1       -0.4702
     23 C         141.4292  145.7908  157.5781 C.3     1  UNL1        0.1747
     24 N         141.1096  144.8646  156.4423 N.pl3   1  UNL1       -0.3106
     25 H         141.8377  144.4408  155.9329 H       1  UNL1        0.1486
     26 C         139.6805  144.5843  156.0825 C.ar    1  UNL1        0.1320
     27 N         138.9237  145.5444  155.2134 N.ar    1  UNL1       -0.2092
     28 C         137.4948  145.2641  154.8537 C.ar    1  UNL1        0.2000
     29 N         136.8226  144.0236  155.3631 N.ar    1  UNL1       -0.2239
     30 C         137.5794  143.0635  156.2322 C.ar    1  UNL1        0.0857
     31 C         136.9072  141.8231  156.7416 C.ar    1  UNL1        0.0192
     32 C         137.6640  140.8630  157.6107 C.ar    1  UNL1        0.0054
     33 C         139.0931  141.1433  157.9705 C.ar    1  UNL1        0.0716
     34 C         139.7652  142.3837  157.4611 C.ar    1  UNL1        0.0081
     35 C         139.0084  143.3439  156.5919 C.ar    1  UNL1        0.0491
     36 C         139.8499  140.1832  158.8396 C.3     1  UNL1        0.4186
     37 F         140.6067  139.2231  159.7088 F       1  UNL1       -0.1659
     38 F         138.6345  139.3091  158.9323 F       1  UNL1       -0.1659
     39 F         141.0653  141.0573  158.7469 F       1  UNL1       -0.1659
@<TRIPOS>BOND
     1    21    22    1
     2    22    15    1
     3    15    16   ar
     4    16    17   ar
     5    17    18   ar
     6    18    19   ar
     7    19    20   ar
     8     9    20    1
     9     9    10    1
    10    10    11    1
    11    11    12    1
    12    12     5    1
    13     5     6    1
    14     6     7    1
    15     7     1    1
    16     1     2   am
    17     2     3    2
    18     2    23    1
    19    23    24    1
    20    24    26    1
    21    26    27   ar
    22    27    28   ar
    23    28    29   ar
    24    29    30   ar
    25    30    31   ar
    26    31    32   ar
    27    32    33   ar
    28    33    36    1
    29    36    37    1
    30    36    38    1
    31    36    39    1
    32    33    34   ar
    33    34    35   ar
    34     7     8    1
    35    12    13    1
    36    13    14    1
    37    20    15   ar
    38    14     9    1
    39     8     5    1
    40    35    26   ar
    41    35    30   ar
    42     1     4    1
    43    24    25    1
@<TRIPOS>MOLECULE
*****
 39 43 0 0 0
SMALL
GASTEIGER

@<TRIPOS>ATOM
      1 N         140.3361  142.3648  159.6344 N.am    1  UNL1       -0.3018
      2 C         141.3055  143.5089  159.5973 C.2     1  UNL1        0.2425
      3 O         142.5896  143.3794  158.8327 O.2     1  UNL1       -0.2733
      4 H         139.4934  142.4498  160.1362 H       1  UNL1        0.1495
      5 N         141.0959  139.2901  157.8785 N.3     1  UNL1       -0.2711
      6 C         140.7097  139.6408  159.2849 C.3     1  UNL1        0.0933
      7 C         140.6509  141.0912  158.9071 C.3     1  UNL1        0.1035
      8 C         141.0371  140.7406  157.5008 C.3     1  UNL1        0.0933
      9 C         142.0400  135.4694  155.6966 C.3     1  UNL1        0.0255
     10 C         143.1010  136.1511  156.5088 C.3     1  UNL1        0.0058
     11 C         142.7863  137.4247  157.2361 C.3     1  UNL1        0.0163
     12 C         141.4106  138.0166  157.1512 C.3     1  UNL1        0.0576
     13 C         140.3496  137.3349  156.3391 C.3     1  UNL1        0.0163
     14 C         140.6643  136.0613  155.6118 C.3     1  UNL1        0.0058
     15 C         142.8965  133.0167  155.7217 C.ar    1  UNL1        0.1538
     16 C         143.2112  131.7431  154.9944 C.ar    1  UNL1        0.1353
     17 N         142.9841  131.6487  153.5147 N.ar    1  UNL1       -0.2392
     18 C         142.4422  132.8278  152.7623 C.ar    1  UNL1        0.0988
     19 C         142.1276  134.1014  153.4896 C.ar    1  UNL1        0.0194
     20 C         142.3547  134.1958  154.9693 C.ar    1  UNL1        0.0146
     21 C         144.4876  132.8512  157.7689 C.3     1  UNL1        0.2525
     22 O         143.1236  133.1111  157.2014 O.3     1  UNL1       -0.4702
     23 C         140.9908  144.7825  160.3246 C.3     1  UNL1        0.1747
     24 N         141.9540  145.3247  161.3387 N.pl3   1  UNL1       -0.3106
     25 H         142.1603  146.2872  161.3562 H       1  UNL1        0.1486
     26 C         142.6028  144.4004  162.3260 C.ar    1  UNL1        0.1320
     27 N         144.0001  143.9098  162.0880 N.ar    1  UNL1       -0.2092
     28 C         144.6488  142.9856  163.0754 C.ar    1  UNL1        0.2000
     29 N         143.9002  142.5519  164.3007 N.ar    1  UNL1       -0.2239
     30 C         142.5028  143.0424  164.5387 C.ar    1  UNL1        0.0857
     31 C         141.7542  142.6088  165.7640 C.ar    1  UNL1        0.0192
     32 C         140.3568  143.0993  166.0020 C.ar    1  UNL1        0.0054
     33 C         139.7081  144.0236  165.0147 C.ar    1  UNL1        0.0716
     34 C         140.4567  144.4573  163.7893 C.ar    1  UNL1        0.0081
     35 C         141.8541  143.9667  163.5514 C.ar    1  UNL1        0.0491
     36 C         138.3107  144.5142  165.2527 C.3     1  UNL1        0.4186
     37 F         136.9132  145.0048  165.4906 F       1  UNL1       -0.1659
     38 F         138.8091  145.3978  166.3575 F       1  UNL1       -0.1659
     39 F         137.8123  143.6305  164.1478 F       1  UNL1       -0.1659
@<TRIPOS>BOND
     1    21    22    1
     2    22    15    1
     3    15    16   ar
     4    16    17   ar
     5    17    18   ar
     6    18    19   ar
     7    19    20   ar
     8     9    20    1
     9     9    10    1
    10    10    11    1
    11    11    12    1
    12    12     5    1
    13     5     6    1
    14     6     7    1
    15     7     1    1
    16     1     2   am
    17     2     3    2
    18     2    23    1
    19    23    24    1
    20    24    26    1
    21    26    27   ar
    22    27    28   ar
    23    28    29   ar
    24    29    30   ar
    25    30    31   ar
    26    31    32   ar
    27    32    33   ar
    28    33    36    1
    29    36    37    1
    30    36    38    1
    31    36    39    1
    32    33    34   ar
    33    34    35   ar
    34     7     8    1
    35    12    13    1
    36    13    14    1
    37    20    15   ar
    38    14     9    1
    39     8     5    1
    40    35    26   ar
    41    35    30   ar
    42     1     4    1
    43    24    25    1
@<TRIPOS>MOLECULE
*****
 39 43 0 0 0
SMALL
GASTEIGER

@<TRIPOS>ATOM
      1 N         138.9095  141.6903  164.1535 N.am    1  UNL1       -0.3018
      2 C         138.3615  140.2953  164.2140 C.2     1  UNL1        0.2425
      3 O         138.0822  139.5436  162.9463 O.2     1  UNL1       -0.2733
      4 H         139.0928  142.1837  164.9854 H       1  UNL1        0.1495
      5 N         139.5581  143.2432  160.9469 N.3     1  UNL1       -0.2711
      6 C         138.3341  142.9990  161.7789 C.3     1  UNL1        0.0933
      7 C         139.1782  142.3336  162.8252 C.3     1  UNL1        0.1035
      8 C         140.4021  142.5777  161.9932 C.3     1  UNL1        0.0933
      9 C         140.3640  145.1729  156.9623 C.3     1  UNL1        0.0255
     10 C         139.8017  143.7835  157.0228 C.3     1  UNL1        0.0058
     11 C         139.5331  143.1403  158.3510 C.3     1  UNL1        0.0163
     12 C         139.8267  143.8864  159.6187 C.3     1  UNL1        0.0576
     13 C         140.3889  145.2757  159.5583 C.3     1  UNL1        0.0163
     14 C         140.6576  145.9190  158.2300 C.3     1  UNL1        0.0058
     15 C         139.8397  147.0160  155.2078 C.ar    1  UNL1        0.1538
     16 C         140.1083  147.6592  153.8796 C.ar    1  UNL1        0.1353
     17 N         141.1699  147.1026  152.9777 N.ar    1  UNL1       -0.2392
     18 C         141.9627  145.9027  153.4041 C.ar    1  UNL1        0.0988
     19 C         141.6941  145.2595  154.7322 C.ar    1  UNL1        0.0194
     20 C         140.6326  145.8161  155.6341 C.ar    1  UNL1        0.0146
     21 C         138.6957  149.0513  156.3473 C.3     1  UNL1        0.2525
     22 O         138.7782  147.5726  156.1096 O.3     1  UNL1       -0.4702
     23 C         138.0928  139.6521  165.5422 C.3     1  UNL1        0.1747
     24 N         139.2349  139.1712  166.3874 N.pl3   1  UNL1       -0.3106
     25 H         139.7512  138.3791  166.1127 H       1  UNL1        0.1486
     26 C         139.5904  139.8971  167.6510 C.ar    1  UNL1        0.1320
     27 N         138.7112  139.7732  168.8599 N.ar    1  UNL1       -0.2092
     28 C         139.0667  140.4991  170.1234 C.ar    1  UNL1        0.2000
     29 N         140.3016  141.3489  170.1781 N.ar    1  UNL1       -0.2239
     30 C         141.1808  141.4728  168.9692 C.ar    1  UNL1        0.0857
     31 C         142.4157  142.3226  169.0239 C.ar    1  UNL1        0.0192
     32 C         143.2950  142.4465  167.8150 C.ar    1  UNL1        0.0054
     33 C         142.9394  141.7206  166.5513 C.ar    1  UNL1        0.0716
     34 C         141.7046  140.8708  166.4967 C.ar    1  UNL1        0.0081
     35 C         140.8253  140.7469  167.7057 C.ar    1  UNL1        0.0491
     36 C         143.8187  141.8445  165.3424 C.3     1  UNL1        0.4186
     37 F         144.6980  141.9685  164.1335 F       1  UNL1       -0.1659
     38 F         143.9580  140.3519  165.2908 F       1  UNL1       -0.1659
     39 F         143.6794  143.3371  165.3941 F       1  UNL1       -0.1659
@<TRIPOS>BOND
     1    21    22    1
     2    22    15    1
     3    15    16   ar
     4    16    17   ar
     5    17    18   ar
     6    18    19   ar
     7    19    20   ar
     8     9    20    1
     9     9    10    1
    10    10    11    1
    11    11    12    1
    12    12     5    1
    13     5     6    1
    14     6     7    1
    15     7     1    1
    16     1     2   am
    17     2     3    2
    18     2    23    1
    19    23    24    1
    20    24    26    1
    21    26    27   ar
    22    27    28   ar
    23    28    29   ar
    24    29    30   ar
    25    30    31   ar
    26    31    32   ar
    27    32    33   ar
    28    33    36    1
    29    36    37    1
    30    36    38    1
    31    36    39    1
    32    33    34   ar
    33    34    35   ar
    34     7     8    1
    35    12    13    1
    36    13    14    1
    37    20    15   ar
    38    14     9    1
    39     8     5    1
    40    35    26   ar
    41    35    30   ar
    42     1     4    1
    43    24    25    1
@<TRIPOS>MOLECULE
*****
 39 43 0 0 0
SMALL
GASTEIGER

@<TRIPOS>ATOM
      1 N         144.0350  139.3253  159.5389 N.am    1  UNL1       -0.3018
      2 C         144.0011  140.4081  158.5014 C.2     1  UNL1        0.2425
      3 O         143.6714  141.8167  158.8980 O.2     1  UNL1       -0.2733
      4 H         144.2514  138.4008  159.2786 H       1  UNL1        0.1495
      5 N         143.3209  140.1117  163.0009 N.3     1  UNL1       -0.2711
      6 C         142.5642  139.4553  161.8845 C.3     1  UNL1        0.0933
      7 C         143.7392  139.6510  160.9729 C.3     1  UNL1        0.1035
      8 C         144.4960  140.3074  162.0893 C.3     1  UNL1        0.0933
      9 C         142.4335  141.0889  167.3030 C.3     1  UNL1        0.0255
     10 C         142.9458  139.7284  166.9331 C.3     1  UNL1        0.0058
     11 C         143.2416  139.4027  165.4991 C.3     1  UNL1        0.0163
     12 C         143.0251  140.4374  164.4349 C.3     1  UNL1        0.0576
     13 C         142.5128  141.7978  164.8047 C.3     1  UNL1        0.0163
     14 C         142.2170  142.1236  166.2387 C.3     1  UNL1        0.0058
     15 C         141.0866  140.6442  169.4797 C.ar    1  UNL1        0.1538
     16 C         140.7908  140.9699  170.9137 C.ar    1  UNL1        0.1353
     17 N         141.5461  142.0661  171.6050 N.ar    1  UNL1       -0.2392
     18 C         142.5972  142.8366  170.8623 C.ar    1  UNL1        0.0988
     19 C         142.8930  142.5109  169.4283 C.ar    1  UNL1        0.0194
     20 C         142.1377  141.4146  168.7369 C.ar    1  UNL1        0.0146
     21 C         139.1899  139.8841  167.8752 C.3     1  UNL1        0.2525
     22 O         140.3314  139.5480  168.7884 O.3     1  UNL1       -0.4702
     23 C         144.2968  140.0824  157.0674 C.3     1  UNL1        0.1747
     24 N         145.5009  140.6744  156.3968 N.pl3   1  UNL1       -0.3106
     25 H         146.3884  140.2707  156.5328 H       1  UNL1        0.1486
     26 C         145.3527  141.8817  155.5188 C.ar    1  UNL1        0.1320
     27 N         144.0240  142.5686  155.4063 N.ar    1  UNL1       -0.2092
     28 C         143.8759  143.7758  154.5284 C.ar    1  UNL1        0.2000
     29 N         145.0564  144.2960  153.7630 N.ar    1  UNL1       -0.2239
     30 C         146.3851  143.6090  153.8756 C.ar    1  UNL1        0.0857
     31 C         147.5656  144.1292  153.1102 C.ar    1  UNL1        0.0192
     32 C         148.8942  143.4423  153.2227 C.ar    1  UNL1        0.0054
     33 C         149.0424  142.2350  154.1006 C.ar    1  UNL1        0.0716
     34 C         147.8619  141.7148  154.8660 C.ar    1  UNL1        0.0081
     35 C         146.5332  142.4019  154.7534 C.ar    1  UNL1        0.0491
     36 C         150.3711  141.5481  154.2131 C.3     1  UNL1        0.4186
     37 F         151.6998  140.8611  154.3256 F       1  UNL1       -0.1659
     38 F         150.4814  141.9953  155.6406 F       1  UNL1       -0.1659
     39 F         150.2607  141.1009  152.7857 F       1  UNL1       -0.1659
@<TRIPOS>BOND
     1    21    22    1
     2    22    15    1
     3    15    16   ar
     4    16    17   ar
     5    17    18   ar
     6    18    19   ar
     7    19    20   ar
     8     9    20    1
     9     9    10    1
    10    10    11    1
    11    11    12    1
    12    12     5    1
    13     5     6    1
    14     6     7    1
    15     7     1    1
    16     1     2   am
    17     2     3    2
    18     2    23    1
    19    23    24    1
    20    24    26    1
    21    26    27   ar
    22    27    28   ar
    23    28    29   ar
    24    29    30   ar
    25    30    31   ar
    26    31    32   ar
    27    32    33   ar
    28    33    36    1
    29    36    37    1
    30    36    38    1
    31    36    39    1
    32    33    34   ar
    33    34    35   ar
    34     7     8    1
    35    12    13    1
    36    13    14    1
    37    20    15   ar
    38    14     9    1
    39     8     5    1
    40    35    26   ar
    41    35    30   ar
    42     1     4    1
    43    24    25    1
@<TRIPOS>MOLECULE
*****
 39 43 0 0 0
SMALL
GASTEIGER

@<TRIPOS>ATOM
      1 N         140.0522  143.0207  158.7859 N.am    1  UNL1       -0.3018
      2 C         141.1681  143.9251  159.2183 C.2     1  UNL1        0.2425
      3 O         142.5940  143.4958  159.0383 O.2     1  UNL1       -0.2733
      4 H         139.1163  143.3025  158.9041 H       1  UNL1        0.1495
      5 N         140.8009  139.8007  157.3075 N.3     1  UNL1       -0.2711
      6 C         140.3232  140.2656  158.6513 C.3     1  UNL1        0.0933
      7 C         140.3624  141.6870  158.1735 C.3     1  UNL1        0.1035
      8 C         140.8400  141.2221  156.8298 C.3     1  UNL1        0.0933
      9 C         141.7312  135.7995  155.4705 C.3     1  UNL1        0.0255
     10 C         142.8459  136.6857  155.9422 C.3     1  UNL1        0.0058
     11 C         142.5357  138.0194  156.5545 C.3     1  UNL1        0.0163
     12 C         141.1110  138.4670  156.6952 C.3     1  UNL1        0.0576
     13 C         139.9964  137.5809  156.2236 C.3     1  UNL1        0.0163
     14 C         140.3065  136.2471  155.6113 C.3     1  UNL1        0.0058
     15 C         142.5163  133.3358  155.7228 C.ar    1  UNL1        0.1538
     16 C         142.8264  132.0020  155.1104 C.ar    1  UNL1        0.1353
     17 N         142.6615  131.7983  153.6335 N.ar    1  UNL1       -0.2392
     18 C         142.1865  132.9283  152.7689 C.ar    1  UNL1        0.0988
     19 C         141.8764  134.2620  153.3812 C.ar    1  UNL1        0.0194
     20 C         142.0413  134.4658  154.8582 C.ar    1  UNL1        0.0146
     21 C         144.0540  133.5773  157.8029 C.3     1  UNL1        0.2525
     22 O         142.6812  133.5395  157.1997 O.3     1  UNL1       -0.4702
     23 C         140.8580  145.2588  159.8307 C.3     1  UNL1        0.1747
     24 N         141.0767  145.4794  161.2981 N.pl3   1  UNL1       -0.3106
     25 H         141.8363  146.0248  161.6061 H       1  UNL1        0.1486
     26 C         140.1381  144.8690  162.2964 C.ar    1  UNL1        0.1320
     27 N         138.6559  145.0169  162.1201 N.ar    1  UNL1       -0.2092
     28 C         137.7173  144.4066  163.1184 C.ar    1  UNL1        0.2000
     29 N         138.2610  143.6482  164.2928 N.ar    1  UNL1       -0.2239
     30 C         139.7432  143.5003  164.4691 C.ar    1  UNL1        0.0857
     31 C         140.2868  142.7420  165.6436 C.ar    1  UNL1        0.0192
     32 C         141.7690  142.5941  165.8198 C.ar    1  UNL1        0.0054
     33 C         142.7077  143.2045  164.8216 C.ar    1  UNL1        0.0716
     34 C         142.1640  143.9628  163.6471 C.ar    1  UNL1        0.0081
     35 C         140.6817  144.1107  163.4709 C.ar    1  UNL1        0.0491
     36 C         144.1899  143.0565  164.9978 C.3     1  UNL1        0.4186
     37 F         145.6722  142.9086  165.1741 F       1  UNL1       -0.1659
     38 F         144.0448  141.5640  164.9652 F       1  UNL1       -0.1659
     39 F         144.3350  144.5491  165.0304 F       1  UNL1       -0.1659
@<TRIPOS>BOND
     1    21    22    1
     2    22    15    1
     3    15    16   ar
     4    16    17   ar
     5    17    18   ar
     6    18    19   ar
     7    19    20   ar
     8     9    20    1
     9     9    10    1
    10    10    11    1
    11    11    12    1
    12    12     5    1
    13     5     6    1
    14     6     7    1
    15     7     1    1
    16     1     2   am
    17     2     3    2
    18     2    23    1
    19    23    24    1
    20    24    26    1
    21    26    27   ar
    22    27    28   ar
    23    28    29   ar
    24    29    30   ar
    25    30    31   ar
    26    31    32   ar
    27    32    33   ar
    28    33    36    1
    29    36    37    1
    30    36    38    1
    31    36    39    1
    32    33    34   ar
    33    34    35   ar
    34     7     8    1
    35    12    13    1
    36    13    14    1
    37    20    15   ar
    38    14     9    1
    39     8     5    1
    40    35    26   ar
    41    35    30   ar
    42     1     4    1
    43    24    25    1
