@<TRIPOS>MOLECULE
*****
 39 44 0 0 0
SMALL
GASTEIGER

@<TRIPOS>ATOM
      1 C         142.6853  135.6726  157.3395 C.ar    1  UNL1        0.2400
      2 N         142.1798  135.2895  155.9801 N.ar    1  UNL1       -0.2090
      3 C         141.5031  136.3120  155.1160 C.ar    1  UNL1        0.1036
      4 C         141.1676  137.8063  155.3023 C.ar    1  UNL1        0.0384
      5 C         141.8690  137.2109  156.4870 C.ar    1  UNL1        0.0236
      6 C         142.5140  137.0781  157.8347 C.ar    1  UNL1        0.1179
      7 N         143.0328  137.4224  159.1994 N.pl3   1  UNL1       -0.2104
      8 S         143.3691  138.2064  160.4331 S.O2    1  UNL1        0.0737
      9 O         143.8000  136.7711  160.4952 O.2     1  UNL1       -0.1499
     10 O         144.0516  137.8373  161.7168 O.2     1  UNL1       -0.1499
     11 C         143.4318  139.6898  161.4956 C.ar    1  UNL1        0.1253
     12 C         144.0978  139.4379  162.8157 C.ar    1  UNL1        0.0202
     13 C         144.2342  140.5515  163.8114 C.ar    1  UNL1        0.0015
     14 C         143.7046  141.9168  163.4869 C.ar    1  UNL1        0.0046
     15 C         143.0385  142.1686  162.1667 C.ar    1  UNL1        0.0547
     16 C         142.9021  141.0551  161.1710 C.ar    1  UNL1        0.0247
     17 C         142.5219  143.5471  161.8791 C.2     1  UNL1        0.2459
     18 O         142.9080  144.2275  163.1590 O.2     1  UNL1       -0.2701
     19 N         141.8781  144.7017  161.1704 N.am    1  UNL1       -0.2989
     20 C         141.1769  145.5073  160.1169 C.3     1  UNL1        0.1161
     21 C         140.4944  145.8764  158.8332 C.3     1  UNL1        0.1487
     22 N         139.9044  145.7692  157.4583 N.ar    1  UNL1       -0.2476
     23 C         139.4710  145.1971  156.1411 C.ar    1  UNL1        0.0968
     24 C         139.2411  144.2225  155.0244 C.ar    1  UNL1        0.0441
     25 C         138.7571  145.6283  154.8264 C.ar    1  UNL1        0.1218
     26 N         139.0934  146.4124  156.0602 N.ar    1  UNL1       -0.1676
     27 C         139.2396  142.9505  154.2292 C.ar    1  UNL1        0.0597
     28 C         138.5359  143.6322  153.0934 C.ar    1  UNL1        0.1237
     29 N         138.3281  142.6224  152.0039 N.ar    1  UNL1       -0.1621
     30 N         138.9033  141.3166  152.4664 N.ar    1  UNL1       -0.2106
     31 C         139.2927  139.5363  152.2217 C.ar    1  UNL1        0.1036
     32 C         139.9612  138.4733  153.0422 C.ar    1  UNL1        0.0399
     33 C         140.4858  138.7999  154.4090 C.ar    1  UNL1        0.0860
     34 N         139.8976  140.0839  153.9038 N.ar    1  UNL1       -0.2264
     35 C         139.4666  141.5194  153.8417 C.ar    1  UNL1        0.1653
     36 H         143.3966  136.5456  159.4604 H       1  UNL1        0.1739
     37 H         141.9925  145.3977  161.8572 H       1  UNL1        0.1498
     38 C         144.1000  133.5061  157.5739 C.3     1  UNL1        0.2543
     39 O         143.3620  134.6501  158.2035 O.3     1  UNL1       -0.4553
@<TRIPOS>BOND
     1    38    39    1
     2    39     1    1
     3     1     2   ar
     4     2     3   ar
     5     3     4   ar
     6     4     5   ar
     7     5     6   ar
     8     6     7    1
     9     7     8    1
    10     8     9    2
    11     8    10    2
    12     8    11    1
    13    11    12   ar
    14    12    13   ar
    15    13    14   ar
    16    14    15   ar
    17    15    16   ar
    18    15    17    1
    19    17    18    2
    20    17    19   am
    21    19    20    1
    22    20    21    1
    23    21    22    1
    24    22    23   ar
    25    23    24   ar
    26    24    25   ar
    27    25    26   ar
    28    24    27    1
    29    27    28   ar
    30    28    29   ar
    31    29    30   ar
    32    30    31   ar
    33    31    32   ar
    34    32    33   ar
    35    33    34   ar
    36    34    35   ar
    37     6     1   ar
    38    16    11   ar
    39    26    22   ar
    40    35    27   ar
    41    33     4    1
    42    35    30   ar
    43     7    36    1
    44    19    37    1
@<TRIPOS>MOLECULE
*****
 39 44 0 0 0
SMALL
GASTEIGER

@<TRIPOS>ATOM
      1 C         139.2921  146.9490  156.8716 C.ar    1  UNL1        0.2400
      2 N         139.2590  146.8920  155.3730 N.ar    1  UNL1       -0.2090
      3 C         139.7010  145.6486  154.6598 C.ar    1  UNL1        0.1036
      4 C         140.2328  144.2816  155.1379 C.ar    1  UNL1        0.0384
      5 C         139.9218  145.2173  156.2682 C.ar    1  UNL1        0.0236
      6 C         139.7670  145.7626  157.6569 C.ar    1  UNL1        0.1179
      7 N         139.7855  145.8582  159.1538 N.pl3   1  UNL1       -0.2104
      8 S         139.9750  145.4938  160.5965 S.O2    1  UNL1        0.0737
      9 O         139.4452  146.8818  160.3902 O.2     1  UNL1       -0.1499
     10 O         139.7389  146.2446  161.8733 O.2     1  UNL1       -0.1499
     11 C         140.4338  144.4093  161.9916 C.ar    1  UNL1        0.1253
     12 C         140.2377  145.0596  163.3290 C.ar    1  UNL1        0.0202
     13 C         140.5665  144.3070  164.5842 C.ar    1  UNL1        0.0015
     14 C         141.0914  142.9043  164.5020 C.ar    1  UNL1        0.0046
     15 C         141.2874  142.2540  163.1646 C.ar    1  UNL1        0.0547
     16 C         140.9587  143.0066  161.9094 C.ar    1  UNL1        0.0247
     17 C         141.8142  140.8502  163.1236 C.2     1  UNL1        0.2459
     18 O         141.9622  140.5990  164.5950 O.2     1  UNL1       -0.2701
     19 N         142.2923  139.5290  162.5983 N.am    1  UNL1       -0.2989
     20 C         142.6698  138.4337  161.6455 C.3     1  UNL1        0.1161
     21 C         142.9059  137.6829  160.3685 C.3     1  UNL1        0.1487
     22 N         142.9750  137.3580  158.9058 N.ar    1  UNL1       -0.2476
     23 C         142.8696  137.4943  157.4157 C.ar    1  UNL1        0.0968
     24 C         142.6011  138.0769  156.0599 C.ar    1  UNL1        0.0441
     25 C         143.1308  136.6748  156.1180 C.ar    1  UNL1        0.1218
     26 N         143.3203  136.3104  157.5607 N.ar    1  UNL1       -0.1676
     27 C         142.1986  139.0428  154.9850 C.ar    1  UNL1        0.0597
     28 C         142.5373  138.0399  153.9223 C.ar    1  UNL1        0.1237
     29 N         142.2538  138.6644  152.5883 N.ar    1  UNL1       -0.1621
     30 N         141.7399  140.0532  152.8266 N.ar    1  UNL1       -0.2106
     31 C         141.1081  141.6749  152.2332 C.ar    1  UNL1        0.1036
     32 C         140.6547  142.9434  152.8930 C.ar    1  UNL1        0.0399
     33 C         140.6665  143.0566  154.3886 C.ar    1  UNL1        0.0860
     34 N         141.1759  141.6752  154.1015 N.ar    1  UNL1       -0.2264
     35 C         141.7057  140.2871  154.3078 C.ar    1  UNL1        0.1653
     36 H         139.4443  146.7753  159.2618 H       1  UNL1        0.1739
     37 H         142.4927  139.0787  163.4506 H       1  UNL1        0.1498
     38 C         138.4748  149.4141  156.7996 C.3     1  UNL1        0.2543
     39 O         138.8501  148.1924  157.5847 O.3     1  UNL1       -0.4553
@<TRIPOS>BOND
     1    38    39    1
     2    39     1    1
     3     1     2   ar
     4     2     3   ar
     5     3     4   ar
     6     4     5   ar
     7     5     6   ar
     8     6     7    1
     9     7     8    1
    10     8     9    2
    11     8    10    2
    12     8    11    1
    13    11    12   ar
    14    12    13   ar
    15    13    14   ar
    16    14    15   ar
    17    15    16   ar
    18    15    17    1
    19    17    18    2
    20    17    19   am
    21    19    20    1
    22    20    21    1
    23    21    22    1
    24    22    23   ar
    25    23    24   ar
    26    24    25   ar
    27    25    26   ar
    28    24    27    1
    29    27    28   ar
    30    28    29   ar
    31    29    30   ar
    32    30    31   ar
    33    31    32   ar
    34    32    33   ar
    35    33    34   ar
    36    34    35   ar
    37     6     1   ar
    38    16    11   ar
    39    26    22   ar
    40    35    27   ar
    41    33     4    1
    42    35    30   ar
    43     7    36    1
    44    19    37    1
@<TRIPOS>MOLECULE
*****
 39 44 0 0 0
SMALL
GASTEIGER

@<TRIPOS>ATOM
      1 C         142.9715  136.1171  157.4765 C.ar    1  UNL1        0.2400
      2 N         142.8382  135.8842  156.0007 N.ar    1  UNL1       -0.2090
      3 C         142.3752  136.9947  155.1049 C.ar    1  UNL1        0.1036
      4 C         141.9627  138.4601  155.3555 C.ar    1  UNL1        0.0384
      5 C         142.3565  137.7392  156.6106 C.ar    1  UNL1        0.0236
      6 C         142.6418  137.4605  158.0566 C.ar    1  UNL1        0.1179
      7 N         142.7877  137.6543  159.5368 N.pl3   1  UNL1       -0.2104
      8 S         142.7783  138.2995  160.8910 S.O2    1  UNL1        0.0737
      9 O         143.2185  136.8657  160.9097 O.2     1  UNL1       -0.1499
     10 O         143.1225  137.7927  162.2601 O.2     1  UNL1       -0.1499
     11 C         142.5287  139.6585  162.0841 C.ar    1  UNL1        0.1253
     12 C         142.8446  139.2645  163.4965 C.ar    1  UNL1        0.0202
     13 C         142.6933  140.2632  164.6054 C.ar    1  UNL1        0.0015
     14 C         142.2262  141.6559  164.3019 C.ar    1  UNL1        0.0046
     15 C         141.9104  142.0500  162.8895 C.ar    1  UNL1        0.0547
     16 C         142.0616  141.0513  161.7806 C.ar    1  UNL1        0.0247
     17 C         141.4461  143.4518  162.6262 C.2     1  UNL1        0.2459
     18 O         141.4761  143.9889  164.0264 O.2     1  UNL1       -0.2701
     19 N         140.9720  144.6768  161.9021 N.am    1  UNL1       -0.2989
     20 C         140.5393  145.5923  160.7953 C.3     1  UNL1        0.1161
     21 C         140.1951  146.0990  159.4261 C.3     1  UNL1        0.1487
     22 N         139.9765  146.1421  157.9427 N.ar    1  UNL1       -0.2476
     23 C         139.9074  145.7167  156.5060 C.ar    1  UNL1        0.0968
     24 C         139.9951  144.8693  155.2715 C.ar    1  UNL1        0.0441
     25 C         139.5389  146.2885  155.1055 C.ar    1  UNL1        0.1218
     26 N         139.5295  146.9337  156.4596 N.ar    1  UNL1       -0.1676
     27 C         140.2302  143.6913  154.3730 C.ar    1  UNL1        0.0597
     28 C         139.8195  144.4927  153.1734 C.ar    1  UNL1        0.1237
     29 N         139.9226  143.6073  151.9670 N.ar    1  UNL1       -0.1621
     30 N         140.3971  142.2587  152.4210 N.ar    1  UNL1       -0.2106
     31 C         140.8844  140.5154  152.0980 C.ar    1  UNL1        0.1036
     32 C         141.3515  139.3693  152.9455 C.ar    1  UNL1        0.0399
     33 C         141.5031  139.5452  154.4274 C.ar    1  UNL1        0.0860
     34 N         141.0273  140.8767  153.9268 N.ar    1  UNL1       -0.2264
     35 C         140.5871  142.3106  153.9080 C.ar    1  UNL1        0.1653
     36 H         143.0972  136.7542  159.7884 H       1  UNL1        0.1739
     37 H         140.8892  145.2940  162.6646 H       1  UNL1        0.1498
     38 C         143.7563  133.6607  157.7932 C.3     1  UNL1        0.2543
     39 O         143.4345  135.0065  158.3722 O.3     1  UNL1       -0.4553
@<TRIPOS>BOND
     1    38    39    1
     2    39     1    1
     3     1     2   ar
     4     2     3   ar
     5     3     4   ar
     6     4     5   ar
     7     5     6   ar
     8     6     7    1
     9     7     8    1
    10     8     9    2
    11     8    10    2
    12     8    11    1
    13    11    12   ar
    14    12    13   ar
    15    13    14   ar
    16    14    15   ar
    17    15    16   ar
    18    15    17    1
    19    17    18    2
    20    17    19   am
    21    19    20    1
    22    20    21    1
    23    21    22    1
    24    22    23   ar
    25    23    24   ar
    26    24    25   ar
    27    25    26   ar
    28    24    27    1
    29    27    28   ar
    30    28    29   ar
    31    29    30   ar
    32    30    31   ar
    33    31    32   ar
    34    32    33   ar
    35    33    34   ar
    36    34    35   ar
    37     6     1   ar
    38    16    11   ar
    39    26    22   ar
    40    35    27   ar
    41    33     4    1
    42    35    30   ar
    43     7    36    1
    44    19    37    1
@<TRIPOS>MOLECULE
*****
 39 44 0 0 0
SMALL
GASTEIGER

@<TRIPOS>ATOM
      1 C         140.0653  145.7827  155.2805 C.ar    1  UNL1        0.2400
      2 N         139.7064  146.8710  156.2484 N.ar    1  UNL1       -0.2090
      3 C         139.7965  146.6213  157.7248 C.ar    1  UNL1        0.1036
      4 C         140.2081  145.3999  158.5727 C.ar    1  UNL1        0.0384
      5 C         140.2873  145.1425  157.0971 C.ar    1  UNL1        0.0236
      6 C         140.5142  144.4448  155.7888 C.ar    1  UNL1        0.1179
      7 N         140.8644  143.3822  154.7896 N.pl3   1  UNL1       -0.2104
      8 S         141.2998  142.0700  154.2079 S.O2    1  UNL1        0.0737
      9 O         140.9510  143.1007  153.1755 O.2     1  UNL1       -0.1499
     10 O         141.4549  141.5858  152.7967 O.2     1  UNL1       -0.1499
     11 C         141.8778  140.3389  154.2566 C.ar    1  UNL1        0.1253
     12 C         142.0695  139.7460  152.8922 C.ar    1  UNL1        0.0202
     13 C         142.5418  138.3294  152.7497 C.ar    1  UNL1        0.0015
     14 C         142.8223  137.5058  153.9716 C.ar    1  UNL1        0.0046
     15 C         142.6305  138.0988  155.3360 C.ar    1  UNL1        0.0547
     16 C         142.1583  139.5154  155.4785 C.ar    1  UNL1        0.0247
     17 C         142.9215  137.2436  156.5334 C.2     1  UNL1        0.2459
     18 O         143.3397  135.9812  155.8395 O.2     1  UNL1       -0.2701
     19 N         143.0748  136.8039  157.9593 N.am    1  UNL1       -0.2989
     20 C         143.0738  136.8274  159.4592 C.3     1  UNL1        0.1161
     21 C         142.9186  137.3116  160.8704 C.3     1  UNL1        0.1487
     22 N         142.6261  138.2039  162.0401 N.ar    1  UNL1       -0.2476
     23 C         142.2279  139.4078  162.8414 C.ar    1  UNL1        0.0968
     24 C         141.7672  140.7926  163.1877 C.ar    1  UNL1        0.0441
     25 C         142.0823  139.8641  164.3228 C.ar    1  UNL1        0.1218
     26 N         142.5177  138.5518  163.7411 N.ar    1  UNL1       -0.1676
     27 C         141.2939  142.2085  163.0413 C.ar    1  UNL1        0.0597
     28 C         141.2458  142.3728  164.5314 C.ar    1  UNL1        0.1237
     29 N         140.7815  143.7677  164.8293 N.ar    1  UNL1       -0.1621
     30 N         140.5427  144.4654  163.5232 N.ar    1  UNL1       -0.2106
     31 C         140.0479  145.9340  162.5334 C.ar    1  UNL1        0.1036
     32 C         139.9392  146.2396  161.0689 C.ar    1  UNL1        0.0399
     33 C         140.2853  145.1889  160.0558 C.ar    1  UNL1        0.0860
     34 N         140.5105  144.5326  161.3857 N.ar    1  UNL1       -0.2264
     35 C         140.8593  143.5018  162.4181 C.ar    1  UNL1        0.1653
     36 H         140.6944  143.8800  153.9574 H       1  UNL1        0.1739
     37 H         143.3824  135.8803  157.8119 H       1  UNL1        0.1498
     38 C         141.0957  146.7301  153.0917 C.3     1  UNL1        0.2543
     39 O         139.9752  146.0324  153.8041 O.3     1  UNL1       -0.4553
@<TRIPOS>BOND
     1    38    39    1
     2    39     1    1
     3     1     2   ar
     4     2     3   ar
     5     3     4   ar
     6     4     5   ar
     7     5     6   ar
     8     6     7    1
     9     7     8    1
    10     8     9    2
    11     8    10    2
    12     8    11    1
    13    11    12   ar
    14    12    13   ar
    15    13    14   ar
    16    14    15   ar
    17    15    16   ar
    18    15    17    1
    19    17    18    2
    20    17    19   am
    21    19    20    1
    22    20    21    1
    23    21    22    1
    24    22    23   ar
    25    23    24   ar
    26    24    25   ar
    27    25    26   ar
    28    24    27    1
    29    27    28   ar
    30    28    29   ar
    31    29    30   ar
    32    30    31   ar
    33    31    32   ar
    34    32    33   ar
    35    33    34   ar
    36    34    35   ar
    37     6     1   ar
    38    16    11   ar
    39    26    22   ar
    40    35    27   ar
    41    33     4    1
    42    35    30   ar
    43     7    36    1
    44    19    37    1
@<TRIPOS>MOLECULE
*****
 39 44 0 0 0
SMALL
GASTEIGER

@<TRIPOS>ATOM
      1 C         142.6456  139.4823  162.2213 C.ar    1  UNL1        0.2400
      2 N         142.3700  140.7766  162.9277 N.ar    1  UNL1       -0.2090
      3 C         141.8994  141.9699  162.1501 C.ar    1  UNL1        0.1036
      4 C         141.6008  142.2145  160.6564 C.ar    1  UNL1        0.0384
      5 C         142.0578  140.8145  160.9411 C.ar    1  UNL1        0.0236
      6 C         142.4506  139.3813  160.7375 C.ar    1  UNL1        0.1179
      7 N         142.7367  138.0701  160.0675 N.pl3   1  UNL1       -0.2104
      8 S         142.8850  137.0231  159.0037 S.O2    1  UNL1        0.0737
      9 O         143.2366  136.5387  160.3790 O.2     1  UNL1       -0.1499
     10 O         143.3158  135.5869  159.0448 O.2     1  UNL1       -0.1499
     11 C         142.8242  136.3580  157.3046 C.ar    1  UNL1        0.1253
     12 C         143.2374  134.9184  157.2231 C.ar    1  UNL1        0.0202
     13 C         143.2449  134.2141  155.8987 C.ar    1  UNL1        0.0015
     14 C         142.8392  134.9495  154.6559 C.ar    1  UNL1        0.0046
     15 C         142.4260  136.3891  154.7374 C.ar    1  UNL1        0.0547
     16 C         142.4185  137.0934  156.0617 C.ar    1  UNL1        0.0247
     17 C         142.0272  137.0901  153.4727 C.2     1  UNL1        0.2459
     18 O         142.2121  135.9651  152.4979 O.2     1  UNL1       -0.2701
     19 N         141.5675  138.1614  152.5288 N.am    1  UNL1       -0.2989
     20 C         141.0967  139.4871  152.0081 C.3     1  UNL1        0.1161
     21 C         140.6659  140.9233  151.9670 C.3     1  UNL1        0.1487
     22 N         140.3217  142.3145  152.4098 N.ar    1  UNL1       -0.2476
     23 C         140.1015  143.5099  153.2888 C.ar    1  UNL1        0.0968
     24 C         140.0291  144.3800  154.5084 C.ar    1  UNL1        0.0441
     25 C         139.6479  144.9963  153.1951 C.ar    1  UNL1        0.1218
     26 N         139.7963  143.9493  152.1313 N.ar    1  UNL1       -0.1676
     27 C         140.1124  144.8304  155.9369 C.ar    1  UNL1        0.0597
     28 C         139.6484  146.2052  155.5564 C.ar    1  UNL1        0.1237
     29 N         139.5914  147.0368  156.8034 N.ar    1  UNL1       -0.1621
     30 N         140.0203  146.1761  157.9545 N.ar    1  UNL1       -0.2106
     31 C         140.3700  145.9082  159.7397 C.ar    1  UNL1        0.1036
     32 C         140.8383  144.7481  160.5673 C.ar    1  UNL1        0.0399
     33 C         141.1291  143.4296  159.9140 C.ar    1  UNL1        0.0860
     34 N         140.6939  144.3281  158.7944 N.ar    1  UNL1       -0.2264
     35 C         140.3423  144.8125  157.4190 C.ar    1  UNL1        0.1653
     36 H         143.0114  137.5434  160.8526 H       1  UNL1        0.1739
     37 H         141.5895  137.6545  151.6852 H       1  UNL1        0.1498
     38 C         142.5691  138.0241  164.3702 C.3     1  UNL1        0.2543
     39 O         143.1162  138.2890  162.9990 O.3     1  UNL1       -0.4553
@<TRIPOS>BOND
     1    38    39    1
     2    39     1    1
     3     1     2   ar
     4     2     3   ar
     5     3     4   ar
     6     4     5   ar
     7     5     6   ar
     8     6     7    1
     9     7     8    1
    10     8     9    2
    11     8    10    2
    12     8    11    1
    13    11    12   ar
    14    12    13   ar
    15    13    14   ar
    16    14    15   ar
    17    15    16   ar
    18    15    17    1
    19    17    18    2
    20    17    19   am
    21    19    20    1
    22    20    21    1
    23    21    22    1
    24    22    23   ar
    25    23    24   ar
    26    24    25   ar
    27    25    26   ar
    28    24    27    1
    29    27    28   ar
    30    28    29   ar
    31    29    30   ar
    32    30    31   ar
    33    31    32   ar
    34    32    33   ar
    35    33    34   ar
    36    34    35   ar
    37     6     1   ar
    38    16    11   ar
    39    26    22   ar
    40    35    27   ar
    41    33     4    1
    42    35    30   ar
    43     7    36    1
    44    19    37    1
@<TRIPOS>MOLECULE
*****
 39 44 0 0 0
SMALL
GASTEIGER

@<TRIPOS>ATOM
      1 C         143.7919  140.3943  161.9685 C.ar    1  UNL1        0.2400
      2 N         144.2884  139.0131  162.2781 N.ar    1  UNL1       -0.2090
      3 C         144.0610  137.8979  161.3010 C.ar    1  UNL1        0.1036
      4 C         143.3746  137.8170  159.9217 C.ar    1  UNL1        0.0384
      5 C         143.3404  139.1949  160.5136 C.ar    1  UNL1        0.0236
      6 C         143.0681  140.6603  160.6820 C.ar    1  UNL1        0.1179
      7 N         142.5869  142.0545  160.4086 N.pl3   1  UNL1       -0.2104
      8 S         141.9491  143.2263  159.7230 S.O2    1  UNL1        0.0737
      9 O         142.5496  143.5617  161.0560 O.2     1  UNL1       -0.1499
     10 O         141.7938  144.6676  160.1084 O.2     1  UNL1       -0.1499
     11 C         141.0533  144.0840  158.3833 C.ar    1  UNL1        0.1253
     12 C         140.8387  145.5423  158.6611 C.ar    1  UNL1        0.0202
     13 C         140.1178  146.3980  157.6621 C.ar    1  UNL1        0.0015
     14 C         139.6115  145.7953  156.3852 C.ar    1  UNL1        0.0046
     15 C         139.8261  144.3370  156.1074 C.ar    1  UNL1        0.0547
     16 C         140.5470  143.4814  157.1064 C.ar    1  UNL1        0.0247
     17 C         139.3051  143.7713  154.8195 C.2     1  UNL1        0.2459
     18 O         138.7005  145.0118  154.2316 O.2     1  UNL1       -0.2701
     19 N         138.9831  142.7974  153.7252 N.am    1  UNL1       -0.2989
     20 C         138.8950  141.5205  152.9429 C.3     1  UNL1        0.1161
     21 C         139.0504  140.0791  152.5575 C.3     1  UNL1        0.1487
     22 N         139.4324  138.6295  152.6107 N.ar    1  UNL1       -0.2476
     23 C         139.9996  137.3288  153.0969 C.ar    1  UNL1        0.0968
     24 C         140.6905  136.3179  153.9631 C.ar    1  UNL1        0.0441
     25 C         140.1359  135.8428  152.6529 C.ar    1  UNL1        0.1218
     26 N         139.4981  137.0147  151.9674 N.ar    1  UNL1       -0.1676
     27 C         141.4304  135.7062  155.1158 C.ar    1  UNL1        0.0597
     28 C         141.4156  134.3644  154.4456 C.ar    1  UNL1        0.1237
     29 N         142.1149  133.3890  155.3453 N.ar    1  UNL1       -0.1621
     30 N         142.5620  134.1280  156.5716 N.ar    1  UNL1       -0.2106
     31 C         143.3854  134.2001  158.2142 C.ar    1  UNL1        0.1036
     32 C         143.6408  135.2763  159.2273 C.ar    1  UNL1        0.0399
     33 C         143.1667  136.6760  158.9704 C.ar    1  UNL1        0.0860
     34 N         142.7394  135.8955  157.7629 N.ar    1  UNL1       -0.2264
     35 C         142.1389  135.5601  156.4298 C.ar    1  UNL1        0.1653
     36 H         142.8992  142.4977  161.2303 H       1  UNL1        0.1739
     37 H         138.5167  143.4011  153.1029 H       1  UNL1        0.1498
     38 C         145.4057  141.8070  163.4348 C.3     1  UNL1        0.2543
     39 O         144.0193  141.5095  162.9456 O.3     1  UNL1       -0.4553
@<TRIPOS>BOND
     1    38    39    1
     2    39     1    1
     3     1     2   ar
     4     2     3   ar
     5     3     4   ar
     6     4     5   ar
     7     5     6   ar
     8     6     7    1
     9     7     8    1
    10     8     9    2
    11     8    10    2
    12     8    11    1
    13    11    12   ar
    14    12    13   ar
    15    13    14   ar
    16    14    15   ar
    17    15    16   ar
    18    15    17    1
    19    17    18    2
    20    17    19   am
    21    19    20    1
    22    20    21    1
    23    21    22    1
    24    22    23   ar
    25    23    24   ar
    26    24    25   ar
    27    25    26   ar
    28    24    27    1
    29    27    28   ar
    30    28    29   ar
    31    29    30   ar
    32    30    31   ar
    33    31    32   ar
    34    32    33   ar
    35    33    34   ar
    36    34    35   ar
    37     6     1   ar
    38    16    11   ar
    39    26    22   ar
    40    35    27   ar
    41    33     4    1
    42    35    30   ar
    43     7    36    1
    44    19    37    1
@<TRIPOS>MOLECULE
*****
 39 44 0 0 0
SMALL
GASTEIGER

@<TRIPOS>ATOM
      1 C         143.0211  136.8368  156.2906 C.ar    1  UNL1        0.2400
      2 N         143.2189  135.9748  157.5022 N.ar    1  UNL1       -0.2090
      3 C         142.9751  136.5378  158.8711 C.ar    1  UNL1        0.1036
      4 C         142.5272  137.9211  159.3868 C.ar    1  UNL1        0.0384
      5 C         142.6261  137.8569  157.8914 C.ar    1  UNL1        0.0236
      6 C         142.5797  138.2617  156.4479 C.ar    1  UNL1        0.1179
      7 N         142.3929  139.0917  155.2125 N.pl3   1  UNL1       -0.2104
      8 S         142.0861  140.2570  154.3192 S.O2    1  UNL1        0.0737
      9 O         142.5010  139.0215  153.5768 O.2     1  UNL1       -0.1499
     10 O         142.1127  140.4296  152.8294 O.2     1  UNL1       -0.1499
     11 C         141.5860  141.9696  153.9321 C.ar    1  UNL1        0.1253
     12 C         141.5761  142.2593  152.4604 C.ar    1  UNL1        0.0202
     13 C         141.1882  143.6216  151.9668 C.ar    1  UNL1        0.0015
     14 C         140.8102  144.6942  152.9450 C.ar    1  UNL1        0.0046
     15 C         140.8202  144.4045  154.4166 C.ar    1  UNL1        0.0547
     16 C         141.2081  143.0422  154.9102 C.ar    1  UNL1        0.0247
     17 C         140.4361  145.5029  155.3631 C.2     1  UNL1        0.2459
     18 O         140.1566  146.5951  154.3736 O.2     1  UNL1       -0.2701
     19 N         140.1439  146.2419  156.6353 N.am    1  UNL1       -0.2989
     20 C         139.9755  146.5413  158.0955 C.3     1  UNL1        0.1161
     21 C         139.9489  146.3686  159.5853 C.3     1  UNL1        0.1487
     22 N         140.0671  145.7426  160.9434 N.ar    1  UNL1       -0.2476
     23 C         140.3173  144.7312  162.0224 C.ar    1  UNL1        0.0968
     24 C         140.6723  143.4439  162.7056 C.ar    1  UNL1        0.0441
     25 C         140.2746  144.6010  163.5733 C.ar    1  UNL1        0.1218
     26 N         139.9678  145.7662  162.6800 N.ar    1  UNL1       -0.1676
     27 C         141.0938  142.0201  162.9188 C.ar    1  UNL1        0.0597
     28 C         140.9667  142.1790  164.4050 C.ar    1  UNL1        0.1237
     29 N         141.3303  140.8714  165.0437 N.ar    1  UNL1       -0.1621
     30 N         141.6821  139.9045  163.9524 N.ar    1  UNL1       -0.2106
     31 C         142.2171  138.2476  163.3611 C.ar    1  UNL1        0.1036
     32 C         142.4755  137.6322  162.0178 C.ar    1  UNL1        0.0399
     33 C         142.2937  138.4474  160.7719 C.ar    1  UNL1        0.0860
     34 N         141.9510  139.3788  161.8967 N.ar    1  UNL1       -0.2264
     35 C         141.5360  140.6144  162.6391 C.ar    1  UNL1        0.1653
     36 H         142.6323  138.4233  154.5304 H       1  UNL1        0.1739
     37 H         139.8974  147.1183  156.2607 H       1  UNL1        0.1498
     38 C         142.6962  134.9371  154.5484 C.3     1  UNL1        0.2543
     39 O         143.2649  136.2738  154.9218 O.3     1  UNL1       -0.4553
@<TRIPOS>BOND
     1    38    39    1
     2    39     1    1
     3     1     2   ar
     4     2     3   ar
     5     3     4   ar
     6     4     5   ar
     7     5     6   ar
     8     6     7    1
     9     7     8    1
    10     8     9    2
    11     8    10    2
    12     8    11    1
    13    11    12   ar
    14    12    13   ar
    15    13    14   ar
    16    14    15   ar
    17    15    16   ar
    18    15    17    1
    19    17    18    2
    20    17    19   am
    21    19    20    1
    22    20    21    1
    23    21    22    1
    24    22    23   ar
    25    23    24   ar
    26    24    25   ar
    27    25    26   ar
    28    24    27    1
    29    27    28   ar
    30    28    29   ar
    31    29    30   ar
    32    30    31   ar
    33    31    32   ar
    34    32    33   ar
    35    33    34   ar
    36    34    35   ar
    37     6     1   ar
    38    16    11   ar
    39    26    22   ar
    40    35    27   ar
    41    33     4    1
    42    35    30   ar
    43     7    36    1
    44    19    37    1
@<TRIPOS>MOLECULE
*****
 39 44 0 0 0
SMALL
GASTEIGER

@<TRIPOS>ATOM
      1 C         143.4457  140.1562  161.8843 C.ar    1  UNL1        0.2400
      2 N         143.2626  141.5712  162.3473 N.ar    1  UNL1       -0.2090
      3 C         142.5757  142.5674  161.4607 C.ar    1  UNL1        0.1036
      4 C         141.9511  142.4835  160.0525 C.ar    1  UNL1        0.0384
      5 C         142.5294  141.1793  160.5158 C.ar    1  UNL1        0.0236
      6 C         142.9419  139.7373  160.5350 C.ar    1  UNL1        0.1179
      7 N         143.1439  138.3137  160.1079 N.pl3   1  UNL1       -0.2104
      8 S         143.1134  137.0626  159.2808 S.O2    1  UNL1        0.0737
      9 O         143.7765  136.8871  160.6147 O.2     1  UNL1       -0.1499
     10 O         143.6157  135.6706  159.5254 O.2     1  UNL1       -0.1499
     11 C         142.7230  136.0471  157.8148 C.ar    1  UNL1        0.1253
     12 C         143.1819  134.6252  157.9472 C.ar    1  UNL1        0.0202
     13 C         142.9407  133.6523  156.8313 C.ar    1  UNL1        0.0015
     14 C         142.2405  134.1014  155.5830 C.ar    1  UNL1        0.0046
     15 C         141.7816  135.5233  155.4507 C.ar    1  UNL1        0.0547
     16 C         142.0228  136.4961  156.5666 C.ar    1  UNL1        0.0247
     17 C         141.0851  135.9340  154.1873 C.2     1  UNL1        0.2459
     18 O         141.1134  134.6262  153.4533 O.2     1  UNL1       -0.2701
     19 N         140.3794  136.7753  153.1654 N.am    1  UNL1       -0.2989
     20 C         139.7407  137.9560  152.4959 C.3     1  UNL1        0.1161
     21 C         139.2385  139.3481  152.2514 C.3     1  UNL1        0.1487
     22 N         138.9270  140.8008  152.4581 N.ar    1  UNL1       -0.2476
     23 C         138.8401  142.1566  153.0940 C.ar    1  UNL1        0.0968
     24 C         138.9871  143.2686  154.0897 C.ar    1  UNL1        0.0441
     25 C         138.3018  143.5863  152.7939 C.ar    1  UNL1        0.1218
     26 N         138.2713  142.3353  151.9668 N.ar    1  UNL1       -0.1676
     27 C         139.3522  144.0164  155.3378 C.ar    1  UNL1        0.0597
     28 C         138.7478  145.2752  154.7902 C.ar    1  UNL1        0.1237
     29 N         138.9177  146.3557  155.8167 N.ar    1  UNL1       -0.1621
     30 N         139.6272  145.7646  156.9987 N.ar    1  UNL1       -0.2106
     31 C         140.3654  145.8886  158.6782 C.ar    1  UNL1        0.1036
     32 C         141.0591  144.9357  159.6059 C.ar    1  UNL1        0.0399
     33 C         141.2696  143.5085  159.1952 C.ar    1  UNL1        0.0860
     34 N         140.5588  144.1432  158.0368 N.ar    1  UNL1       -0.2264
     35 C         139.8957  144.3188  156.7028 C.ar    1  UNL1        0.1653
     36 H         143.6073  137.9694  160.9054 H       1  UNL1        0.1739
     37 H         140.2455  136.0986  152.4630 H       1  UNL1        0.1498
     38 C         144.3867  139.4886  164.2122 C.3     1  UNL1        0.2543
     39 O         144.1325  139.1600  162.7709 O.3     1  UNL1       -0.4553
@<TRIPOS>BOND
     1    38    39    1
     2    39     1    1
     3     1     2   ar
     4     2     3   ar
     5     3     4   ar
     6     4     5   ar
     7     5     6   ar
     8     6     7    1
     9     7     8    1
    10     8     9    2
    11     8    10    2
    12     8    11    1
    13    11    12   ar
    14    12    13   ar
    15    13    14   ar
    16    14    15   ar
    17    15    16   ar
    18    15    17    1
    19    17    18    2
    20    17    19   am
    21    19    20    1
    22    20    21    1
    23    21    22    1
    24    22    23   ar
    25    23    24   ar
    26    24    25   ar
    27    25    26   ar
    28    24    27    1
    29    27    28   ar
    30    28    29   ar
    31    29    30   ar
    32    30    31   ar
    33    31    32   ar
    34    32    33   ar
    35    33    34   ar
    36    34    35   ar
    37     6     1   ar
    38    16    11   ar
    39    26    22   ar
    40    35    27   ar
    41    33     4    1
    42    35    30   ar
    43     7    36    1
    44    19    37    1
@<TRIPOS>MOLECULE
*****
 39 44 0 0 0
SMALL
GASTEIGER

@<TRIPOS>ATOM
      1 C         138.0669  143.7232  153.8226 C.ar    1  UNL1        0.2400
      2 N         138.0203  145.0090  154.5937 N.ar    1  UNL1       -0.2090
      3 C         138.6735  145.0996  155.9411 C.ar    1  UNL1        0.1036
      4 C         139.4575  144.0956  156.8115 C.ar    1  UNL1        0.0384
      5 C         138.9969  143.5085  155.5103 C.ar    1  UNL1        0.0236
      6 C         138.7666  142.5280  154.3987 C.ar    1  UNL1        0.1179
      7 N         138.7916  141.2603  153.5973 N.pl3   1  UNL1       -0.2104
      8 S         139.0692  139.8428  153.1928 S.O2    1  UNL1        0.0737
      9 O         138.2878  140.6181  152.1740 O.2     1  UNL1       -0.1499
     10 O         138.7190  139.0482  151.9698 O.2     1  UNL1       -0.1499
     11 C         139.7441  138.1582  153.3917 C.ar    1  UNL1        0.1253
     12 C         139.4529  137.2676  152.2204 C.ar    1  UNL1        0.0202
     13 C         139.9362  135.8476  152.2195 C.ar    1  UNL1        0.0015
     14 C         140.7108  135.3183  153.3899 C.ar    1  UNL1        0.0046
     15 C         141.0021  136.2089  154.5611 C.ar    1  UNL1        0.0547
     16 C         140.5187  137.6288  154.5621 C.ar    1  UNL1        0.0247
     17 C         141.7794  135.6430  155.7124 C.2     1  UNL1        0.2459
     18 O         141.9957  134.2488  155.2029 O.2     1  UNL1       -0.2701
     19 N         142.4856  135.5359  157.0314 N.am    1  UNL1       -0.2989
     20 C         143.0441  135.8995  158.3754 C.3     1  UNL1        0.1161
     21 C         143.3943  136.6942  159.5984 C.3     1  UNL1        0.1487
     22 N         143.4984  137.8338  160.5682 N.ar    1  UNL1       -0.2476
     23 C         143.3449  139.1950  161.1794 C.ar    1  UNL1        0.0968
     24 C         142.9507  140.6301  161.3660 C.ar    1  UNL1        0.0441
     25 C         143.7323  139.9783  162.4680 C.ar    1  UNL1        0.1218
     26 N         144.0099  138.5608  162.0635 N.ar    1  UNL1       -0.1676
     27 C         142.3583  141.9838  161.1077 C.ar    1  UNL1        0.0597
     28 C         142.8598  142.4831  162.4303 C.ar    1  UNL1        0.1237
     29 N         142.4434  143.9171  162.5726 N.ar    1  UNL1       -0.1621
     30 N         141.6847  144.3041  161.3379 N.ar    1  UNL1       -0.2106
     31 C         140.7533  145.5180  160.3181 C.ar    1  UNL1        0.1036
     32 C         140.0834  145.4848  158.9764 C.ar    1  UNL1        0.0399
     33 C         140.0986  144.2257  158.1614 C.ar    1  UNL1        0.0860
     34 N         140.8506  143.8846  159.4136 N.ar    1  UNL1       -0.2264
     35 C         141.6321  143.1093  160.4326 C.ar    1  UNL1        0.1653
     36 H         138.2880  141.5590  152.8059 H       1  UNL1        0.1739
     37 H         142.7801  134.5978  156.9819 H       1  UNL1        0.1498
     38 C         135.9264  143.4673  152.3725 C.3     1  UNL1        0.2543
     39 O         137.4137  143.6326  152.4753 O.3     1  UNL1       -0.4553
@<TRIPOS>BOND
     1    38    39    1
     2    39     1    1
     3     1     2   ar
     4     2     3   ar
     5     3     4   ar
     6     4     5   ar
     7     5     6   ar
     8     6     7    1
     9     7     8    1
    10     8     9    2
    11     8    10    2
    12     8    11    1
    13    11    12   ar
    14    12    13   ar
    15    13    14   ar
    16    14    15   ar
    17    15    16   ar
    18    15    17    1
    19    17    18    2
    20    17    19   am
    21    19    20    1
    22    20    21    1
    23    21    22    1
    24    22    23   ar
    25    23    24   ar
    26    24    25   ar
    27    25    26   ar
    28    24    27    1
    29    27    28   ar
    30    28    29   ar
    31    29    30   ar
    32    30    31   ar
    33    31    32   ar
    34    32    33   ar
    35    33    34   ar
    36    34    35   ar
    37     6     1   ar
    38    16    11   ar
    39    26    22   ar
    40    35    27   ar
    41    33     4    1
    42    35    30   ar
    43     7    36    1
    44    19    37    1
