@<TRIPOS>MOLECULE
*****
 23 24 0 0 0
SMALL
GASTEIGER

@<TRIPOS>ATOM
      1 C         140.0573  141.2327  167.1578 C.ar    1  UNL1        0.0281
      2 C         139.4574  139.8819  167.4132 C.ar    1  UNL1        0.0040
      3 C         138.5134  139.2797  166.4151 C.ar    1  UNL1        0.0713
      4 C         138.1694  140.0283  165.1616 C.ar    1  UNL1        0.0070
      5 C         138.7694  141.3791  164.9063 C.ar    1  UNL1        0.0372
      6 C         139.7134  141.9813  165.9044 C.ar    1  UNL1        0.1425
      7 C         137.9134  137.9288  166.6704 C.3     1  UNL1        0.4186
      8 F         137.3135  136.5779  166.9258 F       1  UNL1       -0.1659
      9 F         138.7137  137.3591  165.5369 F       1  UNL1       -0.1659
     10 F         137.1131  138.4984  167.8040 F       1  UNL1       -0.1659
     11 C         141.0013  141.8349  168.1560 C.3     1  UNL1        0.0987
     12 C         140.0686  143.0545  170.2518 C.3     1  UNL1        0.0861
     13 N         140.6343  143.1056  168.8635 N.3     1  UNL1       -0.2925
     14 H         141.4818  143.6712  168.9115 H       1  UNL1        0.1236
     15 O         140.3134  143.3322  165.6490 O.3     1  UNL1       -0.4537
     16 C         140.6234  143.7620  164.2458 C.ar    1  UNL1        0.1462
     17 C         141.6552  143.0234  163.4458 C.ar    1  UNL1        0.0384
     18 C         141.9652  143.4532  162.0425 C.ar    1  UNL1        0.0154
     19 C         141.2436  144.6216  161.4393 C.ar    1  UNL1        0.0684
     20 CL        141.5536  145.0515  160.0360 Cl      1  UNL1       -0.0814
     21 C         140.2118  145.3603  162.2392 C.ar    1  UNL1        0.0712
     22 CL        139.4902  146.5287  161.6359 Cl      1  UNL1       -0.0813
     23 C         139.9017  144.9305  163.6425 C.ar    1  UNL1        0.0497
@<TRIPOS>BOND
     1    12    13    1
     2    13    11    1
     3    11     1    1
     4     1     2   ar
     5     2     3   ar
     6     3     7    1
     7     7     8    1
     8     7     9    1
     9     7    10    1
    10     3     4   ar
    11     4     5   ar
    12     5     6   ar
    13     6    15    1
    14    15    16    1
    15    16    17   ar
    16    17    18   ar
    17    18    19   ar
    18    19    20    1
    19    19    21   ar
    20    21    22    1
    21    21    23   ar
    22     6     1   ar
    23    23    16   ar
    24    13    14    1
@<TRIPOS>MOLECULE
*****
 23 24 0 0 0
SMALL
GASTEIGER

@<TRIPOS>ATOM
      1 C         143.0440  141.1418  165.9145 C.ar    1  UNL1        0.0281
      2 C         143.0647  142.1383  167.0354 C.ar    1  UNL1        0.0040
      3 C         142.9171  141.6744  168.4542 C.ar    1  UNL1        0.0713
      4 C         142.7488  140.2140  168.7521 C.ar    1  UNL1        0.0070
      5 C         142.7281  139.2175  167.6312 C.ar    1  UNL1        0.0372
      6 C         142.8757  139.6814  166.2124 C.ar    1  UNL1        0.1425
      7 C         142.9378  142.6711  169.5751 C.3     1  UNL1        0.4186
      8 F         142.9585  143.6676  170.6960 F       1  UNL1       -0.1659
      9 F         144.3184  142.2205  169.9501 F       1  UNL1       -0.1659
     10 F         141.5571  143.1216  169.2001 F       1  UNL1       -0.1659
     11 C         143.1916  141.6057  164.4957 C.3     1  UNL1        0.0987
     12 C         145.6992  141.4156  163.8430 C.3     1  UNL1        0.0861
     13 N         144.2670  141.0263  163.6252 N.3     1  UNL1       -0.2925
     14 H         144.2179  140.0131  163.7315 H       1  UNL1        0.1236
     15 O         142.8550  138.6848  165.0914 O.3     1  UNL1       -0.4537
     16 C         141.6019  138.4800  164.2930 C.ar    1  UNL1        0.1462
     17 C         140.3051  138.1966  164.9919 C.ar    1  UNL1        0.0384
     18 C         139.0520  137.9918  164.1934 C.ar    1  UNL1        0.0154
     19 C         139.0954  138.0703  162.6961 C.ar    1  UNL1        0.0684
     20 CL        137.8422  137.8655  161.8977 Cl      1  UNL1       -0.0814
     21 C         140.3920  138.3537  161.9972 C.ar    1  UNL1        0.0712
     22 CL        140.4355  138.4322  160.4999 Cl      1  UNL1       -0.0813
     23 C         141.6453  138.5585  162.7957 C.ar    1  UNL1        0.0497
@<TRIPOS>BOND
     1    12    13    1
     2    13    11    1
     3    11     1    1
     4     1     2   ar
     5     2     3   ar
     6     3     7    1
     7     7     8    1
     8     7     9    1
     9     7    10    1
    10     3     4   ar
    11     4     5   ar
    12     5     6   ar
    13     6    15    1
    14    15    16    1
    15    16    17   ar
    16    17    18   ar
    17    18    19   ar
    18    19    20    1
    19    19    21   ar
    20    21    22    1
    21    21    23   ar
    22     6     1   ar
    23    23    16   ar
    24    13    14    1
@<TRIPOS>MOLECULE
*****
 23 24 0 0 0
SMALL
GASTEIGER

@<TRIPOS>ATOM
      1 C         139.8142  141.0366  167.3874 C.ar    1  UNL1        0.0281
      2 C         139.1552  139.7140  167.6449 C.ar    1  UNL1        0.0040
      3 C         138.3694  139.0432  166.5574 C.ar    1  UNL1        0.0713
      4 C         138.2426  139.6951  165.2124 C.ar    1  UNL1        0.0070
      5 C         138.9016  141.0178  164.9550 C.ar    1  UNL1        0.0372
      6 C         139.6874  141.6885  166.0425 C.ar    1  UNL1        0.1425
      7 C         137.7104  137.7205  166.8148 C.3     1  UNL1        0.4186
      8 F         137.0514  136.3979  167.0723 F       1  UNL1       -0.1659
      9 F         138.4733  137.1181  165.6725 F       1  UNL1       -0.1659
     10 F         136.9475  138.3230  167.9572 F       1  UNL1       -0.1659
     11 C         140.6000  141.7073  168.4749 C.3     1  UNL1        0.0987
     12 C         140.3909  143.7984  170.0026 C.3     1  UNL1        0.0861
     13 N         140.5369  143.1973  168.6361 N.3     1  UNL1       -0.2925
     14 H         141.3983  143.5730  168.2396 H       1  UNL1        0.1236
     15 O         140.3464  143.0112  165.7850 O.3     1  UNL1       -0.4537
     16 C         141.4277  143.1218  164.7513 C.ar    1  UNL1        0.1462
     17 C         141.1229  143.7145  163.4075 C.ar    1  UNL1        0.0384
     18 C         142.2042  143.8251  162.3738 C.ar    1  UNL1        0.0154
     19 C         143.5904  143.3430  162.6839 C.ar    1  UNL1        0.0684
     20 CL        144.6717  143.4535  161.6503 Cl      1  UNL1       -0.0814
     21 C         143.8952  142.7502  164.0277 C.ar    1  UNL1        0.0712
     22 CL        145.2814  142.2681  164.3378 Cl      1  UNL1       -0.0813
     23 C         142.8139  142.6396  165.0614 C.ar    1  UNL1        0.0497
@<TRIPOS>BOND
     1    12    13    1
     2    13    11    1
     3    11     1    1
     4     1     2   ar
     5     2     3   ar
     6     3     7    1
     7     7     8    1
     8     7     9    1
     9     7    10    1
    10     3     4   ar
    11     4     5   ar
    12     5     6   ar
    13     6    15    1
    14    15    16    1
    15    16    17   ar
    16    17    18   ar
    17    18    19   ar
    18    19    20    1
    19    19    21   ar
    20    21    22    1
    21    21    23   ar
    22     6     1   ar
    23    23    16   ar
    24    13    14    1
@<TRIPOS>MOLECULE
*****
 23 24 0 0 0
SMALL
GASTEIGER

@<TRIPOS>ATOM
      1 C         141.4808  139.4458  166.4606 C.ar    1  UNL1        0.0281
      2 C         142.4178  139.4616  167.6318 C.ar    1  UNL1        0.0040
      3 C         141.8850  139.6877  169.0156 C.ar    1  UNL1        0.0713
      4 C         140.4152  139.8981  169.2282 C.ar    1  UNL1        0.0070
      5 C         139.4782  139.8823  168.0570 C.ar    1  UNL1        0.0372
      6 C         140.0110  139.6562  166.6732 C.ar    1  UNL1        0.1425
      7 C         142.8221  139.7035  170.1868 C.3     1  UNL1        0.4186
      8 F         143.7592  139.7193  171.3580 F       1  UNL1       -0.1659
      9 F         142.9520  141.1927  170.0627 F       1  UNL1       -0.1659
     10 F         142.6922  138.2143  170.3109 F       1  UNL1       -0.1659
     11 C         142.0137  139.2197  165.0768 C.3     1  UNL1        0.0987
     12 C         141.0901  136.9274  164.2753 C.3     1  UNL1        0.0861
     13 N         141.2234  138.4101  164.0918 N.3     1  UNL1       -0.2925
     14 H         140.2778  138.7925  164.0878 H       1  UNL1        0.1236
     15 O         139.0739  139.6404  165.5020 O.3     1  UNL1       -0.4537
     16 C         138.7138  140.9228  164.8123 C.ar    1  UNL1        0.1462
     17 C         137.8854  140.8951  163.5620 C.ar    1  UNL1        0.0384
     18 C         137.5253  142.1775  162.8723 C.ar    1  UNL1        0.0154
     19 C         137.9935  143.4877  163.4329 C.ar    1  UNL1        0.0684
     20 CL        137.6333  144.7701  162.7432 Cl      1  UNL1       -0.0814
     21 C         138.8218  143.5155  164.6831 C.ar    1  UNL1        0.0712
     22 CL        139.2899  144.8257  165.2436 Cl      1  UNL1       -0.0813
     23 C         139.1819  142.2330  165.3729 C.ar    1  UNL1        0.0497
@<TRIPOS>BOND
     1    12    13    1
     2    13    11    1
     3    11     1    1
     4     1     2   ar
     5     2     3   ar
     6     3     7    1
     7     7     8    1
     8     7     9    1
     9     7    10    1
    10     3     4   ar
    11     4     5   ar
    12     5     6   ar
    13     6    15    1
    14    15    16    1
    15    16    17   ar
    16    17    18   ar
    17    18    19   ar
    18    19    20    1
    19    19    21   ar
    20    21    22    1
    21    21    23   ar
    22     6     1   ar
    23    23    16   ar
    24    13    14    1
@<TRIPOS>MOLECULE
*****
 23 24 0 0 0
SMALL
GASTEIGER

@<TRIPOS>ATOM
      1 C         141.7669  140.8305  166.4496 C.ar    1  UNL1        0.0281
      2 C         141.9674  141.9828  167.3887 C.ar    1  UNL1        0.0040
      3 C         141.0634  142.1506  168.5738 C.ar    1  UNL1        0.0713
      4 C         139.9589  141.1661  168.8200 C.ar    1  UNL1        0.0070
      5 C         139.7584  140.0137  167.8810 C.ar    1  UNL1        0.0372
      6 C         140.6624  139.8459  166.6958 C.ar    1  UNL1        0.1425
      7 C         141.2640  143.3031  169.5129 C.3     1  UNL1        0.4186
      8 F         141.4646  144.4555  170.4519 F       1  UNL1       -0.1659
      9 F         140.0167  143.9489  168.9867 F       1  UNL1       -0.1659
     10 F         142.5114  142.6572  170.0391 F       1  UNL1       -0.1659
     11 C         142.6709  140.6627  165.2645 C.3     1  UNL1        0.0987
     12 C         143.3065  138.7231  163.6571 C.3     1  UNL1        0.0861
     13 N         143.3507  139.3482  165.0199 N.3     1  UNL1       -0.2925
     14 H         144.3353  139.4781  165.2524 H       1  UNL1        0.1236
     15 O         140.4618  138.6935  165.7567 O.3     1  UNL1       -0.4537
     16 C         139.6339  138.8703  164.5185 C.ar    1  UNL1        0.1462
     17 C         139.6113  137.7963  163.4716 C.ar    1  UNL1        0.0384
     18 C         138.7834  137.9731  162.2334 C.ar    1  UNL1        0.0154
     19 C         137.9781  139.2240  162.0420 C.ar    1  UNL1        0.0684
     20 CL        137.1502  139.4008  160.8037 Cl      1  UNL1       -0.0814
     21 C         138.0006  140.2981  163.0888 C.ar    1  UNL1        0.0712
     22 CL        137.1953  141.5490  162.8973 Cl      1  UNL1       -0.0813
     23 C         138.8285  140.1212  164.3271 C.ar    1  UNL1        0.0497
@<TRIPOS>BOND
     1    12    13    1
     2    13    11    1
     3    11     1    1
     4     1     2   ar
     5     2     3   ar
     6     3     7    1
     7     7     8    1
     8     7     9    1
     9     7    10    1
    10     3     4   ar
    11     4     5   ar
    12     5     6   ar
    13     6    15    1
    14    15    16    1
    15    16    17   ar
    16    17    18   ar
    17    18    19   ar
    18    19    20    1
    19    19    21   ar
    20    21    22    1
    21    21    23   ar
    22     6     1   ar
    23    23    16   ar
    24    13    14    1
@<TRIPOS>MOLECULE
*****
 23 24 0 0 0
SMALL
GASTEIGER

@<TRIPOS>ATOM
      1 C         139.1715  140.5673  166.1142 C.ar    1  UNL1        0.0281
      2 C         139.1633  139.9513  167.4818 C.ar    1  UNL1        0.0040
      3 C         139.8085  140.6677  168.6309 C.ar    1  UNL1        0.0713
      4 C         140.4619  142.0000  168.4124 C.ar    1  UNL1        0.0070
      5 C         140.4701  142.6160  167.0448 C.ar    1  UNL1        0.0372
      6 C         139.8249  141.8997  165.8957 C.ar    1  UNL1        0.1425
      7 C         139.8003  140.0516  169.9986 C.3     1  UNL1        0.4186
      8 F         139.7921  139.4356  171.3662 F       1  UNL1       -0.1659
      9 F         138.3712  140.4700  170.1784 F       1  UNL1       -0.1659
     10 F         141.2295  139.6332  169.8187 F       1  UNL1       -0.1659
     11 C         138.5262  139.8509  164.9650 C.3     1  UNL1        0.0987
     12 C         137.7533  140.4220  162.5512 C.3     1  UNL1        0.0861
     13 N         137.6141  140.5943  164.0348 N.3     1  UNL1       -0.2925
     14 H         136.6615  140.3200  164.2749 H       1  UNL1        0.1236
     15 O         139.8331  142.5157  164.5280 O.3     1  UNL1       -0.4537
     16 C         141.0952  142.5260  163.7176 C.ar    1  UNL1        0.1462
     17 C         141.4718  141.3255  162.9007 C.ar    1  UNL1        0.0384
     18 C         142.7340  141.3357  162.0903 C.ar    1  UNL1        0.0154
     19 C         143.6196  142.5463  162.0967 C.ar    1  UNL1        0.0684
     20 CL        144.8818  142.5565  161.2863 Cl      1  UNL1       -0.0814
     21 C         143.2431  143.7468  162.9134 C.ar    1  UNL1        0.0712
     22 CL        144.1287  144.9574  162.9198 Cl      1  UNL1       -0.0813
     23 C         141.9809  143.7366  163.7239 C.ar    1  UNL1        0.0497
@<TRIPOS>BOND
     1    12    13    1
     2    13    11    1
     3    11     1    1
     4     1     2   ar
     5     2     3   ar
     6     3     7    1
     7     7     8    1
     8     7     9    1
     9     7    10    1
    10     3     4   ar
    11     4     5   ar
    12     5     6   ar
    13     6    15    1
    14    15    16    1
    15    16    17   ar
    16    17    18   ar
    17    18    19   ar
    18    19    20    1
    19    19    21   ar
    20    21    22    1
    21    21    23   ar
    22     6     1   ar
    23    23    16   ar
    24    13    14    1
@<TRIPOS>MOLECULE
*****
 23 24 0 0 0
SMALL
GASTEIGER

@<TRIPOS>ATOM
      1 C         139.4674  140.1954  166.0472 C.ar    1  UNL1        0.0281
      2 C         139.2586  139.9246  167.5076 C.ar    1  UNL1        0.0040
      3 C         140.3144  140.3109  168.5006 C.ar    1  UNL1        0.0713
      4 C         141.5791  140.9680  168.0331 C.ar    1  UNL1        0.0070
      5 C         141.7880  141.2388  166.5726 C.ar    1  UNL1        0.0372
      6 C         140.7322  140.8526  165.5797 C.ar    1  UNL1        0.1425
      7 C         140.1055  140.0400  169.9611 C.3     1  UNL1        0.4186
      8 F         139.8965  139.7691  171.4215 F       1  UNL1       -0.1659
      9 F         138.8936  140.9238  169.9516 F       1  UNL1       -0.1659
     10 F         141.3174  139.1562  169.9706 F       1  UNL1       -0.1659
     11 C         138.4116  139.8092  165.0542 C.3     1  UNL1        0.0987
     12 C         139.6500  137.6778  164.2336 C.3     1  UNL1        0.0861
     13 N         138.7306  138.8315  163.9623 N.3     1  UNL1       -0.2925
     14 H         137.8431  138.4345  163.6539 H       1  UNL1        0.1236
     15 O         140.9411  141.1234  164.1192 O.3     1  UNL1       -0.4537
     16 C         140.6270  142.4773  163.5550 C.ar    1  UNL1        0.1462
     17 C         139.7843  143.4394  164.3389 C.ar    1  UNL1        0.0384
     18 C         139.4702  144.7933  163.7748 C.ar    1  UNL1        0.0154
     19 C         139.9987  145.1852  162.4268 C.ar    1  UNL1        0.0684
     20 CL        139.6845  146.5390  161.8627 Cl      1  UNL1       -0.0814
     21 C         140.8413  144.2232  161.6429 C.ar    1  UNL1        0.0712
     22 CL        141.3698  144.6151  160.2949 Cl      1  UNL1       -0.0813
     23 C         141.1555  142.8692  162.2070 C.ar    1  UNL1        0.0497
@<TRIPOS>BOND
     1    12    13    1
     2    13    11    1
     3    11     1    1
     4     1     2   ar
     5     2     3   ar
     6     3     7    1
     7     7     8    1
     8     7     9    1
     9     7    10    1
    10     3     4   ar
    11     4     5   ar
    12     5     6   ar
    13     6    15    1
    14    15    16    1
    15    16    17   ar
    16    17    18   ar
    17    18    19   ar
    18    19    20    1
    19    19    21   ar
    20    21    22    1
    21    21    23   ar
    22     6     1   ar
    23    23    16   ar
    24    13    14    1
@<TRIPOS>MOLECULE
*****
 23 24 0 0 0
SMALL
GASTEIGER

@<TRIPOS>ATOM
      1 C         141.0416  140.6293  167.2799 C.ar    1  UNL1        0.0281
      2 C         140.1832  141.3492  168.2773 C.ar    1  UNL1        0.0040
      3 C         140.8019  142.3271  169.2318 C.ar    1  UNL1        0.0713
      4 C         142.2789  142.5851  169.1888 C.ar    1  UNL1        0.0070
      5 C         143.1372  141.8652  168.1914 C.ar    1  UNL1        0.0372
      6 C         142.5186  140.8873  167.2369 C.ar    1  UNL1        0.1425
      7 C         139.9434  143.0470  170.2293 C.3     1  UNL1        0.4186
      8 F         139.0850  143.7668  171.2268 F       1  UNL1       -0.1659
      9 F         139.0776  141.8294  170.3628 F       1  UNL1       -0.1659
     10 F         140.8093  144.2645  170.0958 F       1  UNL1       -0.1659
     11 C         140.4229  139.6515  166.3254 C.3     1  UNL1        0.0987
     12 C         138.3429  138.1645  165.8647 C.3     1  UNL1        0.0861
     13 N         138.9337  139.4751  166.2926 N.3     1  UNL1       -0.2925
     14 H         138.5949  139.6564  167.2374 H       1  UNL1        0.1236
     15 O         143.3770  140.1674  166.2394 O.3     1  UNL1       -0.4537
     16 C         143.7473  140.8352  164.9483 C.ar    1  UNL1        0.1462
     17 C         144.3981  140.0425  163.8536 C.ar    1  UNL1        0.0384
     18 C         144.7684  140.7103  162.5625 C.ar    1  UNL1        0.0154
     19 C         144.4880  142.1707  162.3661 C.ar    1  UNL1        0.0684
     20 CL        144.8584  142.8385  161.0750 Cl      1  UNL1       -0.0814
     21 C         143.8373  142.9634  163.4607 C.ar    1  UNL1        0.0712
     22 CL        143.5569  144.4238  163.2643 Cl      1  UNL1       -0.0813
     23 C         143.4669  142.2956  164.7519 C.ar    1  UNL1        0.0497
@<TRIPOS>BOND
     1    12    13    1
     2    13    11    1
     3    11     1    1
     4     1     2   ar
     5     2     3   ar
     6     3     7    1
     7     7     8    1
     8     7     9    1
     9     7    10    1
    10     3     4   ar
    11     4     5   ar
    12     5     6   ar
    13     6    15    1
    14    15    16    1
    15    16    17   ar
    16    17    18   ar
    17    18    19   ar
    18    19    20    1
    19    19    21   ar
    20    21    22    1
    21    21    23   ar
    22     6     1   ar
    23    23    16   ar
    24    13    14    1
@<TRIPOS>MOLECULE
*****
 23 24 0 0 0
SMALL
GASTEIGER

@<TRIPOS>ATOM
      1 C         139.4388  139.6616  166.5492 C.ar    1  UNL1        0.0281
      2 C         139.3607  139.8929  168.0292 C.ar    1  UNL1        0.0040
      3 C         140.6189  140.0147  168.8367 C.ar    1  UNL1        0.0713
      4 C         141.9552  139.9053  168.1642 C.ar    1  UNL1        0.0070
      5 C         142.0333  139.6740  166.6843 C.ar    1  UNL1        0.0372
      6 C         140.7751  139.5522  165.8767 C.ar    1  UNL1        0.1425
      7 C         140.5408  140.2460  170.3167 C.3     1  UNL1        0.4186
      8 F         140.4627  140.4773  171.7967 F       1  UNL1       -0.1659
      9 F         142.0012  139.9284  170.4435 F       1  UNL1       -0.1659
     10 F         139.0803  140.5637  170.1900 F       1  UNL1       -0.1659
     11 C         138.1806  139.5398  165.7417 C.3     1  UNL1        0.0987
     12 C         138.1595  141.9073  164.6720 C.3     1  UNL1        0.0861
     13 N         137.9656  140.4249  164.5500 N.3     1  UNL1       -0.2925
     14 H         138.6064  140.1029  163.8246 H       1  UNL1        0.1236
     15 O         140.8533  139.3208  164.3967 O.3     1  UNL1       -0.4537
     16 C         141.8487  140.0801  163.5705 C.ar    1  UNL1        0.1462
     17 C         143.0565  139.3805  163.0210 C.ar    1  UNL1        0.0384
     18 C         144.0519  140.1397  162.1948 C.ar    1  UNL1        0.0154
     19 C         143.8396  141.5986  161.9180 C.ar    1  UNL1        0.0684
     20 CL        144.8350  142.3578  161.0918 Cl      1  UNL1       -0.0814
     21 C         142.6318  142.2982  162.4674 C.ar    1  UNL1        0.0712
     22 CL        142.4195  143.7571  162.1905 Cl      1  UNL1       -0.0813
     23 C         141.6364  141.5389  163.2936 C.ar    1  UNL1        0.0497
@<TRIPOS>BOND
     1    12    13    1
     2    13    11    1
     3    11     1    1
     4     1     2   ar
     5     2     3   ar
     6     3     7    1
     7     7     8    1
     8     7     9    1
     9     7    10    1
    10     3     4   ar
    11     4     5   ar
    12     5     6   ar
    13     6    15    1
    14    15    16    1
    15    16    17   ar
    16    17    18   ar
    17    18    19   ar
    18    19    20    1
    19    19    21   ar
    20    21    22    1
    21    21    23   ar
    22     6     1   ar
    23    23    16   ar
    24    13    14    1
