@<TRIPOS>MOLECULE
*****
 34 37 0 0 0
SMALL
GASTEIGER

@<TRIPOS>ATOM
      1 N         142.7540  139.8434  167.6682 N.pl3   1  UNL1       -0.2560
      2 H         143.5704  139.3091  167.5372 H       1  UNL1        0.2592
      3 C         141.4663  139.4148  167.0292 C.3     1  UNL1        0.2144
      4 C         140.2144  139.8644  167.7224 C.3     1  UNL1        0.0490
      5 C         138.7879  139.6036  167.3391 C.3     1  UNL1        0.0057
      6 C         138.2610  138.8285  166.1679 C.3     1  UNL1        0.0216
      7 C         139.0304  138.1230  165.0908 C.3     1  UNL1        0.0940
      8 N         140.5168  138.0182  164.9188 N.am    1  UNL1       -0.2686
      9 C         141.6010  138.5931  165.7815 C.2     1  UNL1        0.2622
     10 O         143.0053  138.3088  165.3378 O.2     1  UNL1       -0.2712
     11 C         140.9805  137.2350  163.7265 C.3     1  UNL1        0.1794
     12 C         140.7418  137.7632  162.3430 C.2     1  UNL1        0.2459
     13 O         139.3514  137.7925  161.7809 O.2     1  UNL1       -0.2730
     14 N         141.8935  138.2622  161.5216 N.am    1  UNL1       -0.2781
     15 C         143.3313  138.2951  161.9476 C.3     1  UNL1        0.0935
     16 C         144.1360  138.8691  160.8194 C.3     1  UNL1        0.0233
     17 C         143.1955  139.1910  159.6960 C.3     1  UNL1        0.0233
     18 C         141.8095  138.8159  160.1301 C.3     1  UNL1        0.0935
     19 N         142.7352  142.4348  167.8533 N.pl3   1  UNL1       -0.0709
     20 C         142.7976  141.0862  168.5070 C.cat   1  UNL1        0.4016
     21 C         144.7251  142.5673  160.2608 C.3     1  UNL1        0.0725
     22 C         144.0784  142.5906  161.6140 C.ar    1  UNL1        0.1233
     23 C         144.7761  142.4004  162.9281 C.ar    1  UNL1        0.0361
     24 C         143.7493  142.5004  164.0170 C.ar    1  UNL1        0.0402
     25 C         143.8554  142.3945  165.5095 C.ar    1  UNL1        0.0402
     26 C         142.6291  142.5406  166.3607 C.ar    1  UNL1        0.1590
     27 C         141.2967  142.7926  165.7196 C.ar    1  UNL1        0.0402
     28 C         141.1905  142.8984  164.2271 C.ar    1  UNL1        0.0405
     29 C         142.4169  142.7523  163.3758 C.ar    1  UNL1        0.1450
     30 O         142.6202  142.8080  161.8907 O.2     1  UNL1       -0.4577
     31 N         142.9037  140.9804  169.9996 N.pl3   1  UNL1       -0.1773
     32 H         143.6975  140.5657  170.4085 H       1  UNL1        0.2780
     33 C         141.8003  141.5064  170.8690 C.1     1  UNL1        0.2552
     34 N         140.6970  142.0324  171.7385 N.1     1  UNL1       -0.1538
@<TRIPOS>BOND
     1    21    22    1
     2    22    23   ar
     3    23    24   ar
     4    24    25   ar
     5    25    26   ar
     6    26    19    1
     7    19    20    2
     8    20    31    1
     9    31    33    1
    10    33    34    3
    11    20     1    1
    12     3     1    1
    13     3     4    1
    14     4     5    1
    15     5     6    1
    16     6     7    1
    17     7     8    1
    18     8    11    1
    19    11    12    1
    20    12    13    2
    21    12    14   am
    22    14    15    1
    23    15    16    1
    24    16    17    1
    25    17    18    1
    26     8     9   am
    27     9    10    2
    28    26    27   ar
    29    27    28   ar
    30    28    29   ar
    31    29    30   ar
    32    30    22   ar
    33    29    24   ar
    34     9     3    1
    35    18    14    1
    36    31    32    1
    37     1     2    1
@<TRIPOS>MOLECULE
*****
 34 37 0 0 0
SMALL
GASTEIGER

@<TRIPOS>ATOM
      1 N         140.6125  139.6306  167.4322 N.pl3   1  UNL1       -0.2560
      2 H         141.2286  138.9104  167.6987 H       1  UNL1        0.2592
      3 C         141.0972  140.7454  166.5534 C.3     1  UNL1        0.2144
      4 C         140.2114  141.9541  166.4873 C.3     1  UNL1        0.0490
      5 C         140.4132  143.2200  165.7084 C.3     1  UNL1        0.0057
      6 C         141.5507  143.5899  164.8033 C.3     1  UNL1        0.0216
      7 C         142.7674  142.7853  164.4536 C.3     1  UNL1        0.0940
      8 N         143.1470  141.4120  164.9225 N.am    1  UNL1       -0.2686
      9 C         142.4037  140.5041  165.8571 C.2     1  UNL1        0.2622
     10 O         143.0526  139.1800  166.1316 O.2     1  UNL1       -0.2712
     11 C         144.4409  140.8756  164.3861 C.3     1  UNL1        0.1794
     12 C         144.6534  140.7721  162.9048 C.2     1  UNL1        0.2459
     13 O         145.5495  141.7508  162.2054 O.2     1  UNL1       -0.2730
     14 N         143.9698  139.6898  162.1228 N.am    1  UNL1       -0.2781
     15 C         143.0502  138.6449  162.6817 C.3     1  UNL1        0.0935
     16 C         142.5978  137.7717  161.5491 C.3     1  UNL1        0.0233
     17 C         143.2379  138.2770  160.2900 C.3     1  UNL1        0.0233
     18 C         144.0858  139.4625  160.6447 C.3     1  UNL1        0.0935
     19 N         138.0829  139.2972  166.9423 N.pl3   1  UNL1       -0.0709
     20 C         139.1890  139.6130  167.9050 C.cat   1  UNL1        0.4016
     21 C         138.6263  140.0542  159.1478 C.3     1  UNL1        0.0725
     22 C         138.6531  139.6566  160.5939 C.ar    1  UNL1        0.1233
     23 C         138.1179  140.4628  161.7400 C.ar    1  UNL1        0.0361
     24 C         138.3538  139.6875  163.0023 C.ar    1  UNL1        0.0402
     25 C         138.0365  139.9859  164.4376 C.ar    1  UNL1        0.0402
     26 C         138.4002  138.9988  165.5069 C.ar    1  UNL1        0.1590
     27 C         139.0812  137.7135  165.1409 C.ar    1  UNL1        0.0402
     28 C         139.3985  137.4151  163.7055 C.ar    1  UNL1        0.0405
     29 C         139.0348  138.4021  162.6362 C.ar    1  UNL1        0.1450
     30 O         139.2198  138.3830  161.1478 O.2     1  UNL1       -0.4577
     31 N         138.8717  139.9114  169.3404 N.pl3   1  UNL1       -0.1773
     32 H         138.3576  139.2645  169.8756 H       1  UNL1        0.2780
     33 C         139.3378  141.1953  169.9603 C.1     1  UNL1        0.2552
     34 N         139.8039  142.4793  170.5802 N.1     1  UNL1       -0.1538
@<TRIPOS>BOND
     1    21    22    1
     2    22    23   ar
     3    23    24   ar
     4    24    25   ar
     5    25    26   ar
     6    26    19    1
     7    19    20    2
     8    20    31    1
     9    31    33    1
    10    33    34    3
    11    20     1    1
    12     3     1    1
    13     3     4    1
    14     4     5    1
    15     5     6    1
    16     6     7    1
    17     7     8    1
    18     8    11    1
    19    11    12    1
    20    12    13    2
    21    12    14   am
    22    14    15    1
    23    15    16    1
    24    16    17    1
    25    17    18    1
    26     8     9   am
    27     9    10    2
    28    26    27   ar
    29    27    28   ar
    30    28    29   ar
    31    29    30   ar
    32    30    22   ar
    33    29    24   ar
    34     9     3    1
    35    18    14    1
    36    31    32    1
    37     1     2    1
@<TRIPOS>MOLECULE
*****
 34 37 0 0 0
SMALL
GASTEIGER

@<TRIPOS>ATOM
      1 N         141.5690  137.3890  163.1708 N.pl3   1  UNL1       -0.2560
      2 H         141.4267  136.4160  163.2187 H       1  UNL1        0.2592
      3 C         140.5169  138.3270  163.6842 C.3     1  UNL1        0.2144
      4 C         139.9702  138.0101  165.0445 C.3     1  UNL1        0.0490
      5 C         138.9223  138.7457  165.8260 C.3     1  UNL1        0.0057
      6 C         138.1622  139.9800  165.4400 C.3     1  UNL1        0.0216
      7 C         138.2624  140.7834  164.1774 C.3     1  UNL1        0.0940
      8 N         139.1473  140.5510  162.9887 N.am    1  UNL1       -0.2686
      9 C         140.1507  139.4578  162.7692 C.2     1  UNL1        0.2622
     10 O         140.8850  139.5011  161.4619 O.2     1  UNL1       -0.2712
     11 C         139.0109  141.5430  161.8719 C.3     1  UNL1        0.1794
     12 C         138.9875  143.0124  162.1724 C.2     1  UNL1        0.2459
     13 O         137.7229  143.7966  161.9830 O.2     1  UNL1       -0.2730
     14 N         140.2287  143.6976  162.6624 N.am    1  UNL1       -0.2781
     15 C         141.5598  143.0478  162.8984 C.3     1  UNL1        0.0935
     16 C         142.5104  144.1015  163.3842 C.3     1  UNL1        0.0233
     17 C         141.7668  145.4026  163.4484 C.3     1  UNL1        0.0233
     18 C         140.3566  145.1530  163.0022 C.3     1  UNL1        0.0935
     19 N         143.6846  138.8825  163.3796 N.pl3   1  UNL1       -0.0709
     20 C         142.8377  137.9335  162.5845 C.cat   1  UNL1        0.4016
     21 C         140.7171  143.0990  169.2990 C.3     1  UNL1        0.0725
     22 C         141.3408  142.0982  168.3719 C.ar    1  UNL1        0.1233
     23 C         141.5160  142.2579  166.8908 C.ar    1  UNL1        0.0361
     24 C         142.1824  141.0204  166.3667 C.ar    1  UNL1        0.0402
     25 C         142.6042  140.6159  164.9853 C.ar    1  UNL1        0.0402
     26 C         143.2627  139.2870  164.7611 C.ar    1  UNL1        0.1590
     27 C         143.4993  138.3625  165.9184 C.ar    1  UNL1        0.0402
     28 C         143.0775  138.7669  167.2999 C.ar    1  UNL1        0.0405
     29 C         142.4190  140.0959  167.5240 C.ar    1  UNL1        0.1450
     30 O         141.8989  140.7620  168.7633 O.2     1  UNL1       -0.4577
     31 N         143.2596  137.5290  161.2030 N.pl3   1  UNL1       -0.1773
     32 H         143.2855  136.5766  160.9553 H       1  UNL1        0.2780
     33 C         143.6420  138.5758  160.1990 C.1     1  UNL1        0.2552
     34 N         144.0245  139.6225  159.1950 N.1     1  UNL1       -0.1538
@<TRIPOS>BOND
     1    21    22    1
     2    22    23   ar
     3    23    24   ar
     4    24    25   ar
     5    25    26   ar
     6    26    19    1
     7    19    20    2
     8    20    31    1
     9    31    33    1
    10    33    34    3
    11    20     1    1
    12     3     1    1
    13     3     4    1
    14     4     5    1
    15     5     6    1
    16     6     7    1
    17     7     8    1
    18     8    11    1
    19    11    12    1
    20    12    13    2
    21    12    14   am
    22    14    15    1
    23    15    16    1
    24    16    17    1
    25    17    18    1
    26     8     9   am
    27     9    10    2
    28    26    27   ar
    29    27    28   ar
    30    28    29   ar
    31    29    30   ar
    32    30    22   ar
    33    29    24   ar
    34     9     3    1
    35    18    14    1
    36    31    32    1
    37     1     2    1
@<TRIPOS>MOLECULE
*****
 34 37 0 0 0
SMALL
GASTEIGER

@<TRIPOS>ATOM
      1 N         141.6311  141.5164  167.4390 N.pl3   1  UNL1       -0.2560
      2 H         140.6887  141.5467  167.7222 H       1  UNL1        0.2592
      3 C         142.1314  142.4697  166.3945 C.3     1  UNL1        0.2144
      4 C         143.6215  142.6204  166.3113 C.3     1  UNL1        0.0490
      5 C         144.4238  143.4848  165.3845 C.3     1  UNL1        0.0057
      6 C         143.9341  144.4120  164.3118 C.3     1  UNL1        0.0216
      7 C         142.5212  144.7037  163.9011 C.3     1  UNL1        0.0940
      8 N         141.2491  144.1404  164.4617 N.am    1  UNL1       -0.2686
      9 C         141.0756  143.1461  165.5714 C.2     1  UNL1        0.2622
     10 O         139.6590  142.7798  165.9016 O.2     1  UNL1       -0.2712
     11 C         139.9830  144.6368  163.8290 C.3     1  UNL1        0.1794
     12 C         139.9181  144.8464  162.3451 C.2     1  UNL1        0.2459
     13 O         139.9078  146.2374  161.7838 O.2     1  UNL1       -0.2730
     14 N         139.8635  143.6649  161.4224 N.am    1  UNL1       -0.2781
     15 C         139.8665  142.2230  161.8353 C.3     1  UNL1        0.0935
     16 C         139.8011  141.3849  160.5930 C.3     1  UNL1        0.0233
     17 C         139.7577  142.3090  159.4122 C.3     1  UNL1        0.0233
     18 C         139.7962  143.7182  159.9249 C.3     1  UNL1        0.0935
     19 N         142.9053  139.2557  167.3141 N.pl3   1  UNL1       -0.0709
     20 C         142.5666  140.5169  168.0521 C.cat   1  UNL1        0.4016
     21 C         137.6094  138.1902  161.6184 C.3     1  UNL1        0.0725
     22 C         138.8142  138.3494  162.4976 C.ar    1  UNL1        0.1233
     23 C         138.7997  138.6434  163.9684 C.ar    1  UNL1        0.0361
     24 C         140.2217  138.7182  164.4402 C.ar    1  UNL1        0.0402
     25 C         140.8184  138.9800  165.7913 C.ar    1  UNL1        0.0402
     26 C         142.3084  138.9940  165.9630 C.ar    1  UNL1        0.1590
     27 C         143.2017  138.7462  164.7838 C.ar    1  UNL1        0.0402
     28 C         142.6050  138.4844  163.4327 C.ar    1  UNL1        0.0405
     29 C         141.1149  138.4705  163.2610 C.ar    1  UNL1        0.1450
     30 O         140.2451  138.2425  162.0604 O.2     1  UNL1       -0.4577
     31 N         143.1634  140.7786  169.4032 N.pl3   1  UNL1       -0.1773
     32 H         143.6440  140.0614  169.8763 H       1  UNL1        0.2780
     33 C         143.0279  142.1331  170.0333 C.1     1  UNL1        0.2552
     34 N         142.8924  143.4876  170.6634 N.1     1  UNL1       -0.1538
@<TRIPOS>BOND
     1    21    22    1
     2    22    23   ar
     3    23    24   ar
     4    24    25   ar
     5    25    26   ar
     6    26    19    1
     7    19    20    2
     8    20    31    1
     9    31    33    1
    10    33    34    3
    11    20     1    1
    12     3     1    1
    13     3     4    1
    14     4     5    1
    15     5     6    1
    16     6     7    1
    17     7     8    1
    18     8    11    1
    19    11    12    1
    20    12    13    2
    21    12    14   am
    22    14    15    1
    23    15    16    1
    24    16    17    1
    25    17    18    1
    26     8     9   am
    27     9    10    2
    28    26    27   ar
    29    27    28   ar
    30    28    29   ar
    31    29    30   ar
    32    30    22   ar
    33    29    24   ar
    34     9     3    1
    35    18    14    1
    36    31    32    1
    37     1     2    1
@<TRIPOS>MOLECULE
*****
 34 37 0 0 0
SMALL
GASTEIGER

@<TRIPOS>ATOM
      1 N         142.3311  139.6998  167.6177 N.pl3   1  UNL1       -0.2560
      2 H         142.4231  138.7211  167.6705 H       1  UNL1        0.2592
      3 C         142.9646  140.4527  166.4854 C.3     1  UNL1        0.2144
      4 C         143.2365  141.9055  166.7413 C.3     1  UNL1        0.0490
      5 C         143.8533  142.9176  165.8220 C.3     1  UNL1        0.0057
      6 C         144.3508  142.7268  164.4198 C.3     1  UNL1        0.0216
      7 C         144.3541  141.4769  163.5905 C.3     1  UNL1        0.0940
      8 N         143.8609  140.1090  163.9587 N.am    1  UNL1       -0.2686
      9 C         143.2425  139.6531  165.2471 C.2     1  UNL1        0.2622
     10 O         142.8502  138.2065  165.3047 O.2     1  UNL1       -0.2712
     11 C         144.0052  139.0579  162.8984 C.3     1  UNL1        0.1794
     12 C         143.3557  139.2487  161.5598 C.2     1  UNL1        0.2459
     13 O         144.1278  139.8686  160.4331 O.2     1  UNL1       -0.2730
     14 N         141.9340  138.8196  161.3479 N.am    1  UNL1       -0.2781
     15 C         141.0412  138.1887  162.3749 C.3     1  UNL1        0.0935
     16 C         139.7110  137.9252  161.7336 C.3     1  UNL1        0.0233
     17 C         139.7818  138.3933  160.3102 C.3     1  UNL1        0.0233
     18 C         141.1558  138.9460  160.0719 C.3     1  UNL1        0.0935
     19 N         140.1669  140.9197  168.3780 N.pl3   1  UNL1       -0.0709
     20 C         141.5574  140.4383  168.6693 C.cat   1  UNL1        0.4016
     21 C         138.0567  141.8612  160.8758 C.3     1  UNL1        0.0725
     22 C         138.3142  141.4337  162.2903 C.ar    1  UNL1        0.1233
     23 C         139.1026  142.1974  163.3126 C.ar    1  UNL1        0.0361
     24 C         139.1042  141.4031  164.5850 C.ar    1  UNL1        0.0402
     25 C         139.7209  141.6602  165.9279 C.ar    1  UNL1        0.0402
     26 C         139.5502  140.6627  167.0350 C.ar    1  UNL1        0.1590
     27 C         138.7626  139.4080  166.7992 C.ar    1  UNL1        0.0402
     28 C         138.1459  139.1509  165.4562 C.ar    1  UNL1        0.0405
     29 C         138.3166  140.1485  164.3492 C.ar    1  UNL1        0.1450
     30 O         137.8284  140.1674  162.9310 O.2     1  UNL1       -0.4577
     31 N         142.1741  140.6954  170.0123 N.pl3   1  UNL1       -0.1773
     32 H         143.0893  140.3856  170.2011 H       1  UNL1        0.2780
     33 C         141.3964  141.4245  171.0676 C.1     1  UNL1        0.2552
     34 N         140.6187  142.1536  172.1229 N.1     1  UNL1       -0.1538
@<TRIPOS>BOND
     1    21    22    1
     2    22    23   ar
     3    23    24   ar
     4    24    25   ar
     5    25    26   ar
     6    26    19    1
     7    19    20    2
     8    20    31    1
     9    31    33    1
    10    33    34    3
    11    20     1    1
    12     3     1    1
    13     3     4    1
    14     4     5    1
    15     5     6    1
    16     6     7    1
    17     7     8    1
    18     8    11    1
    19    11    12    1
    20    12    13    2
    21    12    14   am
    22    14    15    1
    23    15    16    1
    24    16    17    1
    25    17    18    1
    26     8     9   am
    27     9    10    2
    28    26    27   ar
    29    27    28   ar
    30    28    29   ar
    31    29    30   ar
    32    30    22   ar
    33    29    24   ar
    34     9     3    1
    35    18    14    1
    36    31    32    1
    37     1     2    1
@<TRIPOS>MOLECULE
*****
 34 37 0 0 0
SMALL
GASTEIGER

@<TRIPOS>ATOM
      1 N         143.1766  139.5749  166.6421 N.pl3   1  UNL1       -0.2560
      2 H         144.1611  139.5733  166.6545 H       1  UNL1        0.2592
      3 C         142.4402  138.9890  165.4740 C.3     1  UNL1        0.2144
      4 C         140.9892  138.6866  165.7047 C.3     1  UNL1        0.0490
      5 C         139.9918  138.1035  164.7482 C.3     1  UNL1        0.0057
      6 C         140.1990  137.6788  163.3245 C.3     1  UNL1        0.0216
      7 C         141.4548  137.7324  162.5059 C.3     1  UNL1        0.0940
      8 N         142.8135  138.2238  162.9087 N.am    1  UNL1       -0.2686
      9 C         143.2521  138.7831  164.2297 C.2     1  UNL1        0.2622
     10 O         144.6930  139.1903  164.3180 O.2     1  UNL1       -0.2712
     11 C         143.8740  138.1457  161.8508 C.3     1  UNL1        0.1794
     12 C         143.6819  138.8538  160.5424 C.2     1  UNL1        0.2459
     13 O         143.2381  138.0864  159.3324 O.2     1  UNL1       -0.2730
     14 N         143.9336  140.3293  160.4441 N.am    1  UNL1       -0.2781
     15 C         144.3786  141.2242  161.5626 C.3     1  UNL1        0.0935
     16 C         144.5046  142.6169  161.0199 C.3     1  UNL1        0.0233
     17 C         144.1374  142.5826  159.5658 C.3     1  UNL1        0.0233
     18 C         143.7846  141.1688  159.2101 C.3     1  UNL1        0.0935
     19 N         141.8612  141.5545  167.6914 N.pl3   1  UNL1       -0.0709
     20 C         142.4131  140.1633  167.7914 C.cat   1  UNL1        0.4016
     21 C         140.3824  145.6292  161.1467 C.3     1  UNL1        0.0725
     22 C         140.9410  144.9040  162.3351 C.ar    1  UNL1        0.1233
     23 C         140.1443  144.1949  163.3898 C.ar    1  UNL1        0.0361
     24 C         141.1053  143.6133  164.3839 C.ar    1  UNL1        0.0402
     25 C         140.8937  142.8105  165.6332 C.ar    1  UNL1        0.0402
     26 C         142.0727  142.3573  166.4421 C.ar    1  UNL1        0.1590
     27 C         143.4634  142.7069  166.0017 C.ar    1  UNL1        0.0402
     28 C         143.6749  143.5097  164.7525 C.ar    1  UNL1        0.0405
     29 C         142.4959  143.9629  163.9436 C.ar    1  UNL1        0.1450
     30 O         142.3943  144.7606  162.6773 O.2     1  UNL1       -0.4577
     31 N         142.2016  139.3605  169.0408 N.pl3   1  UNL1       -0.1773
     32 H         142.8423  138.6546  169.2867 H       1  UNL1        0.2780
     33 C         141.0139  139.6332  169.9154 C.1     1  UNL1        0.2552
     34 N         139.8261  139.9059  170.7900 N.1     1  UNL1       -0.1538
@<TRIPOS>BOND
     1    21    22    1
     2    22    23   ar
     3    23    24   ar
     4    24    25   ar
     5    25    26   ar
     6    26    19    1
     7    19    20    2
     8    20    31    1
     9    31    33    1
    10    33    34    3
    11    20     1    1
    12     3     1    1
    13     3     4    1
    14     4     5    1
    15     5     6    1
    16     6     7    1
    17     7     8    1
    18     8    11    1
    19    11    12    1
    20    12    13    2
    21    12    14   am
    22    14    15    1
    23    15    16    1
    24    16    17    1
    25    17    18    1
    26     8     9   am
    27     9    10    2
    28    26    27   ar
    29    27    28   ar
    30    28    29   ar
    31    29    30   ar
    32    30    22   ar
    33    29    24   ar
    34     9     3    1
    35    18    14    1
    36    31    32    1
    37     1     2    1
@<TRIPOS>MOLECULE
*****
 34 37 0 0 0
SMALL
GASTEIGER

@<TRIPOS>ATOM
      1 N         141.7155  144.9295  162.2139 N.pl3   1  UNL1       -0.2560
      2 H         141.4371  145.6949  162.7671 H       1  UNL1        0.2592
      3 C         142.7099  143.9411  162.7471 C.3     1  UNL1        0.2144
      4 C         143.7950  143.5319  161.7957 C.3     1  UNL1        0.0490
      5 C         144.9259  142.5732  162.0233 C.3     1  UNL1        0.0057
      6 C         145.2510  141.7867  163.2586 C.3     1  UNL1        0.0216
      7 C         144.5255  141.7649  164.5713 C.3     1  UNL1        0.0940
      8 N         143.2957  142.5240  164.9729 N.am    1  UNL1       -0.2686
      9 C         142.4876  143.4925  164.1610 C.2     1  UNL1        0.2622
     10 O         141.3004  144.0917  164.8549 O.2     1  UNL1       -0.2712
     11 C         142.8096  142.2827  166.3713 C.3     1  UNL1        0.1794
     12 C         141.9255  141.1073  166.6657 C.2     1  UNL1        0.2459
     13 O         141.9650  139.8983  165.7787 O.2     1  UNL1       -0.2730
     14 N         141.0018  141.1408  167.8472 N.am    1  UNL1       -0.2781
     15 C         140.8534  142.2742  168.8184 C.3     1  UNL1        0.0935
     16 C         139.8244  141.8808  169.8363 C.3     1  UNL1        0.0233
     17 C         139.3368  140.5041  169.4942 C.3     1  UNL1        0.0233
     18 C         140.0645  140.0468  168.2649 C.3     1  UNL1        0.0935
     19 N         140.0116  143.7957  160.6136 N.pl3   1  UNL1       -0.0709
     20 C         141.1453  144.7519  160.8379 C.cat   1  UNL1        0.4016
     21 C         138.5603  137.8939  165.5821 C.3     1  UNL1        0.0725
     22 C         138.6556  139.1699  164.7993 C.ar    1  UNL1        0.1233
     23 C         139.4900  139.3917  163.5727 C.ar    1  UNL1        0.0361
     24 C         139.2832  140.8070  163.1210 C.ar    1  UNL1        0.0402
     25 C         139.8467  141.5855  161.9694 C.ar    1  UNL1        0.0402
     26 C         139.4481  143.0171  161.7652 C.ar    1  UNL1        0.1590
     27 C         138.4858  143.6701  162.7127 C.ar    1  UNL1        0.0402
     28 C         137.9223  142.8916  163.8643 C.ar    1  UNL1        0.0405
     29 C         138.3209  141.4600  164.0684 C.ar    1  UNL1        0.1450
     30 O         137.9331  140.4482  165.1057 O.2     1  UNL1       -0.4577
     31 N         141.7089  145.5305  159.6862 N.pl3   1  UNL1       -0.1773
     32 H         142.6013  145.9399  159.7586 H       1  UNL1        0.2780
     33 C         140.9128  145.6851  158.4244 C.1     1  UNL1        0.2552
     34 N         140.1167  145.8398  157.1625 N.1     1  UNL1       -0.1538
@<TRIPOS>BOND
     1    21    22    1
     2    22    23   ar
     3    23    24   ar
     4    24    25   ar
     5    25    26   ar
     6    26    19    1
     7    19    20    2
     8    20    31    1
     9    31    33    1
    10    33    34    3
    11    20     1    1
    12     3     1    1
    13     3     4    1
    14     4     5    1
    15     5     6    1
    16     6     7    1
    17     7     8    1
    18     8    11    1
    19    11    12    1
    20    12    13    2
    21    12    14   am
    22    14    15    1
    23    15    16    1
    24    16    17    1
    25    17    18    1
    26     8     9   am
    27     9    10    2
    28    26    27   ar
    29    27    28   ar
    30    28    29   ar
    31    29    30   ar
    32    30    22   ar
    33    29    24   ar
    34     9     3    1
    35    18    14    1
    36    31    32    1
    37     1     2    1
@<TRIPOS>MOLECULE
*****
 34 37 0 0 0
SMALL
GASTEIGER

@<TRIPOS>ATOM
      1 N         141.5644  140.7957  166.7759 N.pl3   1  UNL1       -0.2560
      2 H         140.6053  140.6047  166.8889 H       1  UNL1        0.2592
      3 C         142.0034  141.9698  165.9518 C.3     1  UNL1        0.2144
      4 C         143.4767  142.2515  165.9534 C.3     1  UNL1        0.0490
      5 C         144.2215  143.3398  165.2388 C.3     1  UNL1        0.0057
      6 C         143.6769  144.4153  164.3460 C.3     1  UNL1        0.0216
      7 C         142.2531  144.6679  163.9474 C.3     1  UNL1        0.0940
      8 N         141.0222  143.9076  164.3432 N.am    1  UNL1       -0.2686
      9 C         140.9110  142.7067  165.2352 C.2     1  UNL1        0.2622
     10 O         139.5242  142.1723  165.4374 O.2     1  UNL1       -0.2712
     11 C         139.7317  144.4151  163.7712 C.3     1  UNL1        0.1794
     12 C         139.5890  144.5994  162.2894 C.2     1  UNL1        0.2459
     13 O         139.2943  145.9586  161.7277 O.2     1  UNL1       -0.2730
     14 N         139.7410  143.4244  161.3694 N.am    1  UNL1       -0.2781
     15 C         140.0347  142.0129  161.7831 C.3     1  UNL1        0.0935
     16 C         140.1012  141.1708  160.5436 C.3     1  UNL1        0.0233
     17 C         139.8487  142.0620  159.3637 C.3     1  UNL1        0.0233
     18 C         139.6261  143.4548  159.8741 C.3     1  UNL1        0.0935
     19 N         143.2005  138.7809  166.6581 N.pl3   1  UNL1       -0.0709
     20 C         142.5869  139.9128  167.4278 C.cat   1  UNL1        0.4016
     21 C         143.1178  138.9969  158.8114 C.3     1  UNL1        0.0725
     22 C         142.9019  138.7873  160.2809 C.ar    1  UNL1        0.1233
     23 C         143.7391  139.3605  161.3857 C.ar    1  UNL1        0.0361
     24 C         143.1655  138.8951  162.6912 C.ar    1  UNL1        0.0402
     25 C         143.5744  139.1440  164.1128 C.ar    1  UNL1        0.0402
     26 C         142.7916  138.5321  165.2364 C.ar    1  UNL1        0.1590
     27 C         141.5999  137.6712  164.9385 C.ar    1  UNL1        0.0402
     28 C         141.1910  137.4223  163.5170 C.ar    1  UNL1        0.0405
     29 C         141.9738  138.0342  162.3934 C.ar    1  UNL1        0.1450
     30 O         141.8109  137.9676  160.9037 O.2     1  UNL1       -0.4577
     31 N         142.9958  140.1616  168.8494 N.pl3   1  UNL1       -0.1773
     32 H         143.2211  139.4042  169.4366 H       1  UNL1        0.2780
     33 C         143.0613  141.5645  169.3763 C.1     1  UNL1        0.2552
     34 N         143.1267  142.9674  169.9032 N.1     1  UNL1       -0.1538
@<TRIPOS>BOND
     1    21    22    1
     2    22    23   ar
     3    23    24   ar
     4    24    25   ar
     5    25    26   ar
     6    26    19    1
     7    19    20    2
     8    20    31    1
     9    31    33    1
    10    33    34    3
    11    20     1    1
    12     3     1    1
    13     3     4    1
    14     4     5    1
    15     5     6    1
    16     6     7    1
    17     7     8    1
    18     8    11    1
    19    11    12    1
    20    12    13    2
    21    12    14   am
    22    14    15    1
    23    15    16    1
    24    16    17    1
    25    17    18    1
    26     8     9   am
    27     9    10    2
    28    26    27   ar
    29    27    28   ar
    30    28    29   ar
    31    29    30   ar
    32    30    22   ar
    33    29    24   ar
    34     9     3    1
    35    18    14    1
    36    31    32    1
    37     1     2    1
@<TRIPOS>MOLECULE
*****
 34 37 0 0 0
SMALL
GASTEIGER

@<TRIPOS>ATOM
      1 N         139.8659  139.8201  167.1780 N.pl3   1  UNL1       -0.2560
      2 H         139.5381  138.9494  166.8560 H       1  UNL1        0.2592
      3 C         139.5013  141.0767  166.4444 C.3     1  UNL1        0.2144
      4 C         139.9889  142.3546  167.0602 C.3     1  UNL1        0.0490
      5 C         139.7930  143.7606  166.5758 C.3     1  UNL1        0.0057
      6 C         139.0609  144.2360  165.3558 C.3     1  UNL1        0.0216
      7 C         138.3441  143.4228  164.3191 C.3     1  UNL1        0.0940
      8 N         138.1823  141.9333  164.2462 N.am    1  UNL1       -0.2686
      9 C         138.6973  140.8892  165.1920 C.2     1  UNL1        0.2622
     10 O         138.3643  139.4699  164.8389 O.2     1  UNL1       -0.2712
     11 C         137.4024  141.4201  163.0722 C.3     1  UNL1        0.1794
     12 C         137.9344  141.6006  161.6814 C.2     1  UNL1        0.2459
     13 O         137.8649  142.9454  161.0205 O.2     1  UNL1       -0.2730
     14 N         138.5360  140.4364  160.9514 N.am    1  UNL1       -0.2781
     15 C         138.6736  139.0397  161.4807 C.3     1  UNL1        0.0935
     16 C         139.3283  138.2046  160.4205 C.3     1  UNL1        0.0233
     17 C         139.5953  139.0853  159.2359 C.3     1  UNL1        0.0233
     18 C         139.1056  140.4647  159.5641 C.3     1  UNL1        0.0935
     19 N         142.2209  139.9806  168.2635 N.pl3   1  UNL1       -0.0709
     20 C         140.7301  139.8902  168.4020 C.cat   1  UNL1        0.4016
     21 C         145.0870  142.6229  161.4497 C.3     1  UNL1        0.0725
     22 C         144.6134  141.8588  162.6505 C.ar    1  UNL1        0.1233
     23 C         143.9846  142.4475  163.8785 C.ar    1  UNL1        0.0361
     24 C         143.6680  141.3244  164.8211 C.ar    1  UNL1        0.0402
     25 C         143.0412  141.3041  166.1837 C.ar    1  UNL1        0.0402
     26 C         142.8476  140.0009  166.9008 C.ar    1  UNL1        0.1590
     27 C         143.2808  138.7181  166.2553 C.ar    1  UNL1        0.0402
     28 C         143.9075  138.7384  164.8927 C.ar    1  UNL1        0.0405
     29 C         144.1011  140.0415  164.1756 C.ar    1  UNL1        0.1450
     30 O         144.6854  140.3718  162.8341 O.2     1  UNL1       -0.4577
     31 N         140.1033  139.8699  169.7647 N.pl3   1  UNL1       -0.1773
     32 H         139.4790  139.1488  170.0087 H       1  UNL1        0.2780
     33 C         140.4278  140.9482  170.7556 C.1     1  UNL1        0.2552
     34 N         140.7523  142.0265  171.7465 N.1     1  UNL1       -0.1538
@<TRIPOS>BOND
     1    21    22    1
     2    22    23   ar
     3    23    24   ar
     4    24    25   ar
     5    25    26   ar
     6    26    19    1
     7    19    20    2
     8    20    31    1
     9    31    33    1
    10    33    34    3
    11    20     1    1
    12     3     1    1
    13     3     4    1
    14     4     5    1
    15     5     6    1
    16     6     7    1
    17     7     8    1
    18     8    11    1
    19    11    12    1
    20    12    13    2
    21    12    14   am
    22    14    15    1
    23    15    16    1
    24    16    17    1
    25    17    18    1
    26     8     9   am
    27     9    10    2
    28    26    27   ar
    29    27    28   ar
    30    28    29   ar
    31    29    30   ar
    32    30    22   ar
    33    29    24   ar
    34     9     3    1
    35    18    14    1
    36    31    32    1
    37     1     2    1
