@<TRIPOS>MOLECULE
*****
 30 33 0 0 0
SMALL
GASTEIGER

@<TRIPOS>ATOM
      1 C         141.6237  140.8640  164.4751 C.3     1  UNL1        0.0339
      2 C         140.7696  140.5199  165.6591 C.ar    1  UNL1        0.0095
      3 C         139.4941  139.7545  165.4667 C.ar    1  UNL1        0.0730
      4 C         138.6399  139.4104  166.6508 C.ar    1  UNL1        0.1531
      5 F         137.3643  138.6450  166.4583 F       1  UNL1       -0.2029
      6 C         139.0614  139.8317  168.0273 C.ar    1  UNL1        0.0321
      7 C         140.3369  140.5971  168.2198 C.ar    1  UNL1        0.0154
      8 C         140.7584  141.0184  169.5963 C.ar    1  UNL1       -0.0004
      9 C         142.0340  141.7838  169.7888 C.ar    1  UNL1        0.0579
     10 C         142.8881  142.1279  168.6047 C.ar    1  UNL1        0.2606
     11 O         144.1637  142.8934  168.7972 O.2     1  UNL1       -0.2670
     12 N         142.4667  141.7066  167.2282 N.ar    1  UNL1       -0.2977
     13 C         141.1911  140.9412  167.0357 C.ar    1  UNL1        0.0594
     14 N         139.0726  139.3332  164.0901 N.pl3   1  UNL1       -0.3059
     15 C         139.1980  137.9543  163.5130 C.3     1  UNL1        0.0909
     16 C         138.6546  137.9856  162.1152 C.3     1  UNL1        0.0244
     17 C         138.1934  139.3839  161.8285 C.3     1  UNL1        0.0356
     18 C         138.4517  140.2167  163.0490 C.3     1  UNL1        0.0922
     19 C         137.5813  139.8649  160.5463 C.3     1  UNL1        0.0525
     20 C         138.3737  140.7363  159.6175 C.3     1  UNL1        0.0169
     21 N         136.1767  139.4745  160.1929 N.3     1  UNL1       -0.3221
     22 H         135.9251  139.8866  159.2944 H       1  UNL1        0.1188
     23 H         135.5384  139.8130  160.9129 H       1  UNL1        0.1188
     24 C         139.9043  140.6743  170.7804 C.3     1  UNL1        0.0924
     25 N         139.9591  139.2960  171.3695 N.3     1  UNL1       -0.3175
     26 H         139.5947  138.6232  170.6949 H       1  UNL1        0.1192
     27 H         139.3943  139.2663  172.2183 H       1  UNL1        0.1192
     28 C         143.3208  142.0507  166.0441 C.3     1  UNL1        0.0885
     29 C         143.8821  143.0726  165.1004 C.3     1  UNL1        0.0246
     30 C         144.2388  141.6248  164.9369 C.3     1  UNL1        0.0246
@<TRIPOS>BOND
     1     1     2    1
     2     2     3   ar
     3     3    14    1
     4    14    15    1
     5    15    16    1
     6    17    16    1
     7    17    19    1
     8    19    20    1
     9    19    21    1
    10    17    18    1
    11     3     4   ar
    12     4     5    1
    13     4     6   ar
    14     6     7   ar
    15     7     8   ar
    16     8    24    1
    17    24    25    1
    18     8     9   ar
    19     9    10   ar
    20    10    11    2
    21    10    12   ar
    22    12    28    1
    23    28    29    1
    24    29    30    1
    25    12    13   ar
    26    13     2   ar
    27    18    14    1
    28    13     7   ar
    29    30    28    1
    30    21    22    1
    31    21    23    1
    32    25    26    1
    33    25    27    1
@<TRIPOS>MOLECULE
*****
 30 33 0 0 0
SMALL
GASTEIGER

@<TRIPOS>ATOM
      1 C         140.7168  140.3247  164.4687 C.3     1  UNL1        0.0339
      2 C         141.5575  141.0497  165.4775 C.ar    1  UNL1        0.0095
      3 C         142.7832  141.7935  165.0367 C.ar    1  UNL1        0.0730
      4 C         143.6239  142.5184  166.0455 C.ar    1  UNL1        0.1531
      5 F         144.8497  143.2622  165.6046 F       1  UNL1       -0.2029
      6 C         143.2389  142.4995  167.4951 C.ar    1  UNL1        0.0321
      7 C         142.0132  141.7557  167.9359 C.ar    1  UNL1        0.0154
      8 C         141.6282  141.7368  169.3855 C.ar    1  UNL1       -0.0004
      9 C         140.4025  140.9930  169.8263 C.ar    1  UNL1        0.0579
     10 C         139.5617  140.2681  168.8176 C.ar    1  UNL1        0.2606
     11 O         138.3360  139.5242  169.2584 O.2     1  UNL1       -0.2670
     12 N         139.9467  140.2870  167.3680 N.ar    1  UNL1       -0.2977
     13 C         141.1725  141.0308  166.9271 C.ar    1  UNL1        0.0594
     14 N         143.1682  141.8124  163.5870 N.pl3   1  UNL1       -0.3059
     15 C         144.0676  140.8274  162.9007 C.3     1  UNL1        0.0909
     16 C         144.1767  141.2258  161.4588 C.3     1  UNL1        0.0244
     17 C         143.3448  142.4570  161.2538 C.3     1  UNL1        0.0356
     18 C         142.7216  142.8196  162.5692 C.3     1  UNL1        0.0922
     19 C         143.1674  143.1960  159.9606 C.3     1  UNL1        0.0525
     20 C         143.9111  142.7532  158.7356 C.3     1  UNL1        0.0169
     21 N         142.2462  144.3779  159.8924 N.3     1  UNL1       -0.3221
     22 H         142.2470  144.7554  158.9448 H       1  UNL1        0.1188
     23 H         142.5643  145.0950  160.5443 H       1  UNL1        0.1188
     24 C         142.4689  142.4617  170.3943 C.3     1  UNL1        0.0924
     25 N         142.1423  142.3600  171.8548 N.3     1  UNL1       -0.3175
     26 H         141.2412  142.8033  172.0334 H       1  UNL1        0.1192
     27 H         142.8662  142.8299  172.3986 H       1  UNL1        0.1192
     28 C         139.1060  139.5620  166.3592 C.3     1  UNL1        0.0885
     29 C         138.0617  139.5833  165.2827 C.3     1  UNL1        0.0246
     30 C         138.6942  138.2851  165.6884 C.3     1  UNL1        0.0246
@<TRIPOS>BOND
     1     1     2    1
     2     2     3   ar
     3     3    14    1
     4    14    15    1
     5    15    16    1
     6    17    16    1
     7    17    19    1
     8    19    20    1
     9    19    21    1
    10    17    18    1
    11     3     4   ar
    12     4     5    1
    13     4     6   ar
    14     6     7   ar
    15     7     8   ar
    16     8    24    1
    17    24    25    1
    18     8     9   ar
    19     9    10   ar
    20    10    11    2
    21    10    12   ar
    22    12    28    1
    23    28    29    1
    24    29    30    1
    25    12    13   ar
    26    13     2   ar
    27    18    14    1
    28    13     7   ar
    29    30    28    1
    30    21    22    1
    31    21    23    1
    32    25    26    1
    33    25    27    1
@<TRIPOS>MOLECULE
*****
 30 33 0 0 0
SMALL
GASTEIGER

@<TRIPOS>ATOM
      1 C         140.3099  142.7061  165.8890 C.3     1  UNL1        0.0339
      2 C         141.3645  142.4426  164.8553 C.ar    1  UNL1        0.0095
      3 C         142.4909  141.4992  165.1567 C.ar    1  UNL1        0.0730
      4 C         143.5455  141.2358  164.1231 C.ar    1  UNL1        0.1531
      5 F         144.6721  140.2922  164.4245 F       1  UNL1       -0.2029
      6 C         143.4737  141.9158  162.7880 C.ar    1  UNL1        0.0321
      7 C         142.3472  142.8593  162.4867 C.ar    1  UNL1        0.0154
      8 C         142.2753  143.5394  161.1516 C.ar    1  UNL1       -0.0004
      9 C         141.1488  144.4829  160.8502 C.ar    1  UNL1        0.0579
     10 C         140.0942  144.7463  161.8839 C.ar    1  UNL1        0.2606
     11 O         138.9677  145.6898  161.5824 O.2     1  UNL1       -0.2670
     12 N         140.1661  144.0662  163.2189 N.ar    1  UNL1       -0.2977
     13 C         141.2926  143.1227  163.5203 C.ar    1  UNL1        0.0594
     14 N         142.5629  140.8191  166.4918 N.pl3   1  UNL1       -0.3059
     15 C         142.5466  139.3380  166.7288 C.3     1  UNL1        0.0909
     16 C         142.6373  139.1041  168.2076 C.3     1  UNL1        0.0244
     17 C         142.7097  140.4408  168.8846 C.3     1  UNL1        0.0356
     18 C         142.6636  141.5006  167.8242 C.3     1  UNL1        0.0922
     19 C         142.8104  140.6761  170.3626 C.3     1  UNL1        0.0525
     20 C         142.1038  141.8432  170.9861 C.3     1  UNL1        0.0169
     21 N         143.6177  139.7445  171.2172 N.3     1  UNL1       -0.3221
     22 H         143.5764  140.0524  172.1887 H       1  UNL1        0.1188
     23 H         144.5873  139.7469  170.9007 H       1  UNL1        0.1188
     24 C         143.3299  143.2760  160.1179 C.3     1  UNL1        0.0924
     25 N         143.1446  143.7713  158.7143 N.3     1  UNL1       -0.3175
     26 H         142.3581  143.2855  158.2833 H       1  UNL1        0.1192
     27 H         143.9919  143.5914  158.1756 H       1  UNL1        0.1192
     28 C         139.1115  144.3297  164.2525 C.3     1  UNL1        0.0885
     29 C         137.7284  144.0991  164.7852 C.3     1  UNL1        0.0246
     30 C         138.6680  145.0165  165.5101 C.3     1  UNL1        0.0246
@<TRIPOS>BOND
     1     1     2    1
     2     2     3   ar
     3     3    14    1
     4    14    15    1
     5    15    16    1
     6    17    16    1
     7    17    19    1
     8    19    20    1
     9    19    21    1
    10    17    18    1
    11     3     4   ar
    12     4     5    1
    13     4     6   ar
    14     6     7   ar
    15     7     8   ar
    16     8    24    1
    17    24    25    1
    18     8     9   ar
    19     9    10   ar
    20    10    11    2
    21    10    12   ar
    22    12    28    1
    23    28    29    1
    24    29    30    1
    25    12    13   ar
    26    13     2   ar
    27    18    14    1
    28    13     7   ar
    29    30    28    1
    30    21    22    1
    31    21    23    1
    32    25    26    1
    33    25    27    1
@<TRIPOS>MOLECULE
*****
 30 33 0 0 0
SMALL
GASTEIGER

@<TRIPOS>ATOM
      1 C         141.4976  140.6244  164.2573 C.3     1  UNL1        0.0339
      2 C         140.9716  141.5335  165.3282 C.ar    1  UNL1        0.0095
      3 C         140.1533  142.7346  164.9572 C.ar    1  UNL1        0.0730
      4 C         139.6273  143.6437  166.0281 C.ar    1  UNL1        0.1531
      5 F         138.8090  144.8448  165.6570 F       1  UNL1       -0.2029
      6 C         139.9196  143.3517  167.4700 C.ar    1  UNL1        0.0321
      7 C         140.7379  142.1506  167.8410 C.ar    1  UNL1        0.0154
      8 C         141.0302  141.8585  169.2831 C.ar    1  UNL1       -0.0004
      9 C         141.8485  140.6574  169.6541 C.ar    1  UNL1        0.0579
     10 C         142.3745  139.7483  168.5832 C.ar    1  UNL1        0.2606
     11 O         143.1928  138.5472  168.9543 O.2     1  UNL1       -0.2670
     12 N         142.0822  140.0403  167.1412 N.ar    1  UNL1       -0.2977
     13 C         141.2639  141.2415  166.7701 C.ar    1  UNL1        0.0594
     14 N         139.8610  143.0266  163.5151 N.pl3   1  UNL1       -0.3059
     15 C         138.6366  142.6013  162.7600 C.3     1  UNL1        0.0909
     16 C         138.7606  143.1070  161.3533 C.3     1  UNL1        0.0244
     17 C         140.0615  143.8450  161.2391 C.3     1  UNL1        0.0356
     18 C         140.7416  143.7953  162.5751 C.3     1  UNL1        0.0922
     19 C         140.5897  144.5150  160.0053 C.3     1  UNL1        0.0525
     20 C         140.0211  144.1677  158.6614 C.3     1  UNL1        0.0169
     21 N         141.6864  145.5324  160.1154 N.3     1  UNL1       -0.3221
     22 H         141.9200  145.8824  159.1863 H       1  UNL1        0.1188
     23 H         142.5105  145.1001  160.5330 H       1  UNL1        0.1188
     24 C         140.5042  142.7676  170.3540 C.3     1  UNL1        0.0924
     25 N         140.5218  142.3265  171.7875 N.3     1  UNL1       -0.3175
     26 H         139.8880  141.5364  171.9079 H       1  UNL1        0.1192
     27 H         140.2213  143.0974  172.3841 H       1  UNL1        0.1192
     28 C         142.6082  139.1312  166.0703 C.3     1  UNL1        0.0885
     29 C         143.7131  138.7191  165.1434 C.3     1  UNL1        0.0246
     30 C         142.4143  137.9687  165.1424 C.3     1  UNL1        0.0246
@<TRIPOS>BOND
     1     1     2    1
     2     2     3   ar
     3     3    14    1
     4    14    15    1
     5    15    16    1
     6    17    16    1
     7    17    19    1
     8    19    20    1
     9    19    21    1
    10    17    18    1
    11     3     4   ar
    12     4     5    1
    13     4     6   ar
    14     6     7   ar
    15     7     8   ar
    16     8    24    1
    17    24    25    1
    18     8     9   ar
    19     9    10   ar
    20    10    11    2
    21    10    12   ar
    22    12    28    1
    23    28    29    1
    24    29    30    1
    25    12    13   ar
    26    13     2   ar
    27    18    14    1
    28    13     7   ar
    29    30    28    1
    30    21    22    1
    31    21    23    1
    32    25    26    1
    33    25    27    1
@<TRIPOS>MOLECULE
*****
 30 33 0 0 0
SMALL
GASTEIGER

@<TRIPOS>ATOM
      1 C         141.0085  142.6676  165.0294 C.3     1  UNL1        0.0339
      2 C         141.5416  141.4231  164.3836 C.ar    1  UNL1        0.0095
      3 C         141.4648  140.1111  165.1065 C.ar    1  UNL1        0.0730
      4 C         141.9979  138.8666  164.4608 C.ar    1  UNL1        0.1531
      5 F         141.9210  137.5545  165.1838 F       1  UNL1       -0.2029
      6 C         142.6079  138.9341  163.0921 C.ar    1  UNL1        0.0321
      7 C         142.6848  140.2461  162.3692 C.ar    1  UNL1        0.0154
      8 C         143.2948  140.3137  161.0005 C.ar    1  UNL1       -0.0004
      9 C         143.3717  141.6257  160.2776 C.ar    1  UNL1        0.0579
     10 C         142.8386  142.8702  160.9233 C.ar    1  UNL1        0.2606
     11 O         142.9155  144.1823  160.2004 O.2     1  UNL1       -0.2670
     12 N         142.2286  142.8027  162.2920 N.ar    1  UNL1       -0.2977
     13 C         142.1517  141.4906  163.0150 C.ar    1  UNL1        0.0594
     14 N         140.8547  140.0435  166.4753 N.pl3   1  UNL1       -0.3059
     15 C         139.3953  139.8845  166.7832 C.3     1  UNL1        0.0909
     16 C         139.2355  139.8658  168.2746 C.3     1  UNL1        0.0244
     17 C         140.5963  140.0132  168.8883 C.3     1  UNL1        0.0356
     18 C         141.5970  140.1230  167.7763 C.3     1  UNL1        0.0922
     19 C         140.9026  140.0452  170.3564 C.3     1  UNL1        0.0525
     20 C         142.1993  140.6241  170.8396 C.3     1  UNL1        0.0169
     21 N         139.9122  139.4982  171.3413 N.3     1  UNL1       -0.3221
     22 H         140.2811  139.6003  172.2867 H       1  UNL1        0.1188
     23 H         139.7477  138.5108  171.1453 H       1  UNL1        0.1188
     24 C         143.8279  139.0692  160.3547 C.3     1  UNL1        0.0924
     25 N         143.4679  138.7479  158.9345 N.3     1  UNL1       -0.3175
     26 H         142.4678  138.5576  158.8720 H       1  UNL1        0.1192
     27 H         143.9900  137.9267  158.6288 H       1  UNL1        0.1192
     28 C         141.6955  144.0472  162.9378 C.3     1  UNL1        0.0885
     29 C         140.5565  144.9856  163.2064 C.3     1  UNL1        0.0246
     30 C         141.9110  145.2642  163.7876 C.3     1  UNL1        0.0246
@<TRIPOS>BOND
     1     1     2    1
     2     2     3   ar
     3     3    14    1
     4    14    15    1
     5    15    16    1
     6    17    16    1
     7    17    19    1
     8    19    20    1
     9    19    21    1
    10    17    18    1
    11     3     4   ar
    12     4     5    1
    13     4     6   ar
    14     6     7   ar
    15     7     8   ar
    16     8    24    1
    17    24    25    1
    18     8     9   ar
    19     9    10   ar
    20    10    11    2
    21    10    12   ar
    22    12    28    1
    23    28    29    1
    24    29    30    1
    25    12    13   ar
    26    13     2   ar
    27    18    14    1
    28    13     7   ar
    29    30    28    1
    30    21    22    1
    31    21    23    1
    32    25    26    1
    33    25    27    1
@<TRIPOS>MOLECULE
*****
 30 33 0 0 0
SMALL
GASTEIGER

@<TRIPOS>ATOM
      1 C         141.0347  142.6068  165.1728 C.3     1  UNL1        0.0339
      2 C         140.2783  141.4617  164.5673 C.ar    1  UNL1        0.0095
      3 C         140.0845  140.1950  165.3470 C.ar    1  UNL1        0.0730
      4 C         139.3282  139.0499  164.7415 C.ar    1  UNL1        0.1531
      5 F         139.1344  137.7831  165.5212 F       1  UNL1       -0.2029
      6 C         138.7656  139.1714  163.3563 C.ar    1  UNL1        0.0321
      7 C         138.9595  140.4381  162.5766 C.ar    1  UNL1        0.0154
      8 C         138.3969  140.5597  161.1914 C.ar    1  UNL1       -0.0004
      9 C         138.5907  141.8263  160.4117 C.ar    1  UNL1        0.0579
     10 C         139.3471  142.9715  161.0172 C.ar    1  UNL1        0.2606
     11 O         139.5408  144.2382  160.2375 O.2     1  UNL1       -0.2670
     12 N         139.9096  142.8499  162.4024 N.ar    1  UNL1       -0.2977
     13 C         139.7158  141.5832  163.1821 C.ar    1  UNL1        0.0594
     14 N         140.6471  140.0734  166.7322 N.pl3   1  UNL1       -0.3059
     15 C         142.0187  139.5805  167.0866 C.3     1  UNL1        0.0909
     16 C         142.1562  139.6258  168.5796 C.3     1  UNL1        0.0244
     17 C         140.8694  140.1467  169.1479 C.3     1  UNL1        0.0356
     18 C         139.9367  140.4233  168.0061 C.3     1  UNL1        0.0922
     19 C         140.5681  140.3545  170.6026 C.3     1  UNL1        0.0525
     20 C         141.0206  141.6083  171.2906 C.3     1  UNL1        0.0169
     21 N         139.8145  139.3085  171.3694 N.3     1  UNL1       -0.3221
     22 H         139.6996  139.6124  172.3362 H       1  UNL1        0.1188
     23 H         140.3341  138.4310  171.3482 H       1  UNL1        0.1188
     24 C         137.6406  139.4145  160.5859 C.3     1  UNL1        0.0924
     25 N         136.1988  139.5840  160.2084 N.3     1  UNL1       -0.3175
     26 H         135.6418  139.7303  161.0503 H       1  UNL1        0.1192
     27 H         135.8728  138.7463  159.7263 H       1  UNL1        0.1192
     28 C         140.6659  143.9951  163.0079 C.3     1  UNL1        0.0885
     29 C         141.9276  144.7963  163.1345 C.3     1  UNL1        0.0246
     30 C         140.7142  145.1771  163.9300 C.3     1  UNL1        0.0246
@<TRIPOS>BOND
     1     1     2    1
     2     2     3   ar
     3     3    14    1
     4    14    15    1
     5    15    16    1
     6    17    16    1
     7    17    19    1
     8    19    20    1
     9    19    21    1
    10    17    18    1
    11     3     4   ar
    12     4     5    1
    13     4     6   ar
    14     6     7   ar
    15     7     8   ar
    16     8    24    1
    17    24    25    1
    18     8     9   ar
    19     9    10   ar
    20    10    11    2
    21    10    12   ar
    22    12    28    1
    23    28    29    1
    24    29    30    1
    25    12    13   ar
    26    13     2   ar
    27    18    14    1
    28    13     7   ar
    29    30    28    1
    30    21    22    1
    31    21    23    1
    32    25    26    1
    33    25    27    1
@<TRIPOS>MOLECULE
*****
 30 33 0 0 0
SMALL
GASTEIGER

@<TRIPOS>ATOM
      1 C         142.6590  140.9473  165.1124 C.3     1  UNL1        0.0339
      2 C         141.5742  141.6555  164.3564 C.ar    1  UNL1        0.0095
      3 C         140.1941  141.7491  164.9363 C.ar    1  UNL1        0.0730
      4 C         139.1092  142.4573  164.1803 C.ar    1  UNL1        0.1531
      5 F         137.7290  142.5508  164.7603 F       1  UNL1       -0.2029
      6 C         139.4046  143.0719  162.8443 C.ar    1  UNL1        0.0321
      7 C         140.7847  142.9784  162.2643 C.ar    1  UNL1        0.0154
      8 C         141.0801  143.5931  160.9283 C.ar    1  UNL1       -0.0004
      9 C         142.4602  143.4995  160.3483 C.ar    1  UNL1        0.0579
     10 C         143.5451  142.7913  161.1044 C.ar    1  UNL1        0.2606
     11 O         144.9253  142.6978  160.5243 O.2     1  UNL1       -0.2670
     12 N         143.2497  142.1767  162.4403 N.ar    1  UNL1       -0.2977
     13 C         141.8695  142.2702  163.0204 C.ar    1  UNL1        0.0594
     14 N         139.8987  141.1344  166.2724 N.pl3   1  UNL1       -0.3059
     15 C         139.1522  139.8549  166.5086 C.3     1  UNL1        0.0909
     16 C         139.0901  139.6210  167.9889 C.3     1  UNL1        0.0244
     17 C         139.7981  140.7560  168.6676 C.3     1  UNL1        0.0356
     18 C         140.2979  141.6913  167.6068 C.3     1  UNL1        0.0922
     19 C         139.9753  140.9258  170.1474 C.3     1  UNL1        0.0525
     20 C         140.2536  142.2847  170.7184 C.3     1  UNL1        0.0169
     21 N         139.8743  139.7368  171.0563 N.3     1  UNL1       -0.3221
     22 H         140.0200  140.0331  172.0213 H       1  UNL1        0.1188
     23 H         140.5851  139.0516  170.8000 H       1  UNL1        0.1188
     24 C         139.9953  144.3013  160.1722 C.3     1  UNL1        0.0924
     25 N         139.8190  145.7830  160.3250 N.3     1  UNL1       -0.3175
     26 H         139.5276  145.9941  161.2795 H       1  UNL1        0.1192
     27 H         139.1069  146.1098  159.6720 H       1  UNL1        0.1192
     28 C         144.3346  141.4685  163.1964 C.3     1  UNL1        0.0885
     29 C         144.9769  140.1941  163.6582 C.3     1  UNL1        0.0246
     30 C         145.5711  141.5162  164.0441 C.3     1  UNL1        0.0246
@<TRIPOS>BOND
     1     1     2    1
     2     2     3   ar
     3     3    14    1
     4    14    15    1
     5    15    16    1
     6    17    16    1
     7    17    19    1
     8    19    20    1
     9    19    21    1
    10    17    18    1
    11     3     4   ar
    12     4     5    1
    13     4     6   ar
    14     6     7   ar
    15     7     8   ar
    16     8    24    1
    17    24    25    1
    18     8     9   ar
    19     9    10   ar
    20    10    11    2
    21    10    12   ar
    22    12    28    1
    23    28    29    1
    24    29    30    1
    25    12    13   ar
    26    13     2   ar
    27    18    14    1
    28    13     7   ar
    29    30    28    1
    30    21    22    1
    31    21    23    1
    32    25    26    1
    33    25    27    1
@<TRIPOS>MOLECULE
*****
 30 33 0 0 0
SMALL
GASTEIGER

@<TRIPOS>ATOM
      1 C         142.8731  140.4399  165.5560 C.3     1  UNL1        0.0339
      2 C         141.5976  140.0931  164.8468 C.ar    1  UNL1        0.0095
      3 C         140.2817  140.2544  165.5483 C.ar    1  UNL1        0.0730
      4 C         139.0062  139.9076  164.8392 C.ar    1  UNL1        0.1531
      5 F         137.6902  140.0689  165.5408 F       1  UNL1       -0.2029
      6 C         139.0467  139.3994  163.4285 C.ar    1  UNL1        0.0321
      7 C         140.3627  139.2381  162.7269 C.ar    1  UNL1        0.0154
      8 C         140.4032  138.7300  161.3162 C.ar    1  UNL1       -0.0004
      9 C         141.7192  138.5687  160.6146 C.ar    1  UNL1        0.0579
     10 C         142.9947  138.9155  161.3238 C.ar    1  UNL1        0.2606
     11 O         144.3107  138.7542  160.6222 O.2     1  UNL1       -0.2670
     12 N         142.9541  139.4236  162.7345 N.ar    1  UNL1       -0.2977
     13 C         141.6381  139.5850  163.4361 C.ar    1  UNL1        0.0594
     14 N         140.2411  140.7625  166.9591 N.pl3   1  UNL1       -0.3059
     15 C         139.5830  140.0821  168.1227 C.3     1  UNL1        0.0909
     16 C         139.7867  140.9393  169.3367 C.3     1  UNL1        0.0244
     17 C         140.5706  142.1495  168.9233 C.3     1  UNL1        0.0356
     18 C         140.8515  142.0402  167.4539 C.3     1  UNL1        0.0922
     19 C         140.9986  143.2719  169.8217 C.3     1  UNL1        0.0525
     20 C         142.3899  143.2954  170.3819 C.3     1  UNL1        0.0169
     21 N         140.0353  144.3709  170.1599 N.3     1  UNL1       -0.3221
     22 H         140.4904  145.0441  170.7764 H       1  UNL1        0.1188
     23 H         139.2206  143.9762  170.6298 H       1  UNL1        0.1188
     24 C         139.1278  138.3832  160.6070 C.3     1  UNL1        0.0924
     25 N         138.3703  139.4437  159.8644 N.3     1  UNL1       -0.3175
     26 H         138.0154  140.1342  160.5259 H       1  UNL1        0.1192
     27 H         137.5890  139.0175  159.3659 H       1  UNL1        0.1192
     28 C         144.2296  139.7704  163.4437 C.3     1  UNL1        0.0885
     29 C         145.3253  139.4035  164.4001 C.3     1  UNL1        0.0246
     30 C         145.3430  140.7381  163.7156 C.3     1  UNL1        0.0246
@<TRIPOS>BOND
     1     1     2    1
     2     2     3   ar
     3     3    14    1
     4    14    15    1
     5    15    16    1
     6    17    16    1
     7    17    19    1
     8    19    20    1
     9    19    21    1
    10    17    18    1
    11     3     4   ar
    12     4     5    1
    13     4     6   ar
    14     6     7   ar
    15     7     8   ar
    16     8    24    1
    17    24    25    1
    18     8     9   ar
    19     9    10   ar
    20    10    11    2
    21    10    12   ar
    22    12    28    1
    23    28    29    1
    24    29    30    1
    25    12    13   ar
    26    13     2   ar
    27    18    14    1
    28    13     7   ar
    29    30    28    1
    30    21    22    1
    31    21    23    1
    32    25    26    1
    33    25    27    1
@<TRIPOS>MOLECULE
*****
 30 33 0 0 0
SMALL
GASTEIGER

@<TRIPOS>ATOM
      1 C         140.1500  139.8336  165.0067 C.3     1  UNL1        0.0339
      2 C         141.0755  140.6305  165.8776 C.ar    1  UNL1        0.0095
      3 C         142.2984  141.2675  165.2871 C.ar    1  UNL1        0.0730
      4 C         143.2238  142.0644  166.1580 C.ar    1  UNL1        0.1531
      5 F         144.4468  142.7013  165.5673 F       1  UNL1       -0.2029
      6 C         142.9264  142.2244  167.6194 C.ar    1  UNL1        0.0321
      7 C         141.7035  141.5875  168.2100 C.ar    1  UNL1        0.0154
      8 C         141.4059  141.7475  169.6715 C.ar    1  UNL1       -0.0004
      9 C         140.1830  141.1105  170.2620 C.ar    1  UNL1        0.0579
     10 C         139.2576  140.3136  169.3911 C.ar    1  UNL1        0.2606
     11 O         138.0346  139.6767  169.9817 O.2     1  UNL1       -0.2670
     12 N         139.5550  140.1536  167.9297 N.ar    1  UNL1       -0.2977
     13 C         140.7780  140.7905  167.3391 C.ar    1  UNL1        0.0594
     14 N         142.5959  141.1075  163.8255 N.pl3   1  UNL1       -0.3059
     15 C         142.4833  142.1777  162.7806 C.3     1  UNL1        0.0909
     16 C         142.8761  141.5809  161.4616 C.3     1  UNL1        0.0244
     17 C         143.2313  140.1418  161.6915 C.3     1  UNL1        0.0356
     18 C         143.0582  139.8492  163.1525 C.3     1  UNL1        0.0922
     19 C         143.6809  139.1665  160.6442 C.3     1  UNL1        0.0525
     20 C         143.9007  137.7272  161.0047 C.3     1  UNL1        0.0169
     21 N         143.9106  139.6305  159.2364 N.3     1  UNL1       -0.3221
     22 H         144.2104  138.8419  158.6632 H       1  UNL1        0.1188
     23 H         144.6333  140.3502  159.2293 H       1  UNL1        0.1188
     24 C         142.3314  142.5444  170.5424 C.3     1  UNL1        0.0924
     25 N         142.2618  142.4064  172.0344 N.3     1  UNL1       -0.3175
     26 H         141.3657  142.7620  172.3673 H       1  UNL1        0.1192
     27 H         143.0191  142.9402  172.4609 H       1  UNL1        0.1192
     28 C         138.6296  139.3567  167.0588 C.3     1  UNL1        0.0885
     29 C         137.6814  138.2083  166.8798 C.3     1  UNL1        0.0246
     30 C         137.9749  139.1248  165.7293 C.3     1  UNL1        0.0246
@<TRIPOS>BOND
     1     1     2    1
     2     2     3   ar
     3     3    14    1
     4    14    15    1
     5    15    16    1
     6    17    16    1
     7    17    19    1
     8    19    20    1
     9    19    21    1
    10    17    18    1
    11     3     4   ar
    12     4     5    1
    13     4     6   ar
    14     6     7   ar
    15     7     8   ar
    16     8    24    1
    17    24    25    1
    18     8     9   ar
    19     9    10   ar
    20    10    11    2
    21    10    12   ar
    22    12    28    1
    23    28    29    1
    24    29    30    1
    25    12    13   ar
    26    13     2   ar
    27    18    14    1
    28    13     7   ar
    29    30    28    1
    30    21    22    1
    31    21    23    1
    32    25    26    1
    33    25    27    1
