@<TRIPOS>MOLECULE
*****
 53 60 0 0 0
SMALL
GASTEIGER

@<TRIPOS>ATOM
      1 C         133.2188  140.6646  155.7259 C.ar    1  UNL1        0.2216
      2 N         133.3592  141.3799  154.4150 N.ar    1  UNL1       -0.2120
      3 C         134.7225  141.7030  153.8792 C.ar    1  UNL1        0.1048
      4 C         135.9453  141.3107  154.6543 C.ar    1  UNL1        0.0551
      5 C         137.3087  141.6337  154.1185 C.ar    1  UNL1        0.0061
      6 C         138.5315  141.2414  154.8936 C.ar    1  UNL1        0.0179
      7 C         138.3909  140.5261  156.2046 C.ar    1  UNL1        0.0829
      8 N         137.0277  140.2030  156.7404 N.ar    1  UNL1       -0.2264
      9 C         135.8049  140.5953  155.9652 C.ar    1  UNL1        0.1666
     10 N         134.4416  140.2723  156.5010 N.ar    1  UNL1       -0.1945
     11 N         129.1289  139.6954  157.3333 N.3     1  UNL1       -0.2686
     12 C         130.3428  139.0504  157.9336 C.3     1  UNL1        0.0939
     13 C         131.7062  139.3735  157.3977 C.3     1  UNL1        0.1109
     14 N         131.8555  140.3415  156.2617 N.pl3   1  UNL1       -0.2753
     15 C         130.6415  140.9865  155.6615 C.3     1  UNL1        0.1109
     16 C         129.2782  140.6635  156.1973 C.3     1  UNL1        0.0939
     17 C         127.7656  139.3724  157.8691 C.3     1  UNL1        0.0897
     18 C         127.6232  138.4950  159.0774 C.3     1  UNL1        0.0897
     19 C         127.6170  140.5950  160.6071 C.3     1  UNL1        0.0897
     20 N         127.4916  139.1098  160.4393 N.3     1  UNL1       -0.2691
     21 C         127.2346  138.2391  161.6335 C.3     1  UNL1        0.0897
     22 C         139.8947  141.5645  154.3579 C.ar    1  UNL1        0.0015
     23 C         140.6522  140.5392  153.5672 C.ar    1  UNL1        0.0000
     24 C         142.0155  140.8622  153.0315 C.ar    1  UNL1        0.0000
     25 C         142.6213  142.2105  153.2863 C.ar    1  UNL1        0.0000
     26 C         141.8639  143.2358  154.0769 C.ar    1  UNL1        0.0000
     27 C         140.5006  142.9128  154.6127 C.ar    1  UNL1        0.0000
     28 C         139.6138  140.1338  156.9797 C.ar    1  UNL1        0.0177
     29 C         140.1722  138.7477  156.8487 C.ar    1  UNL1        0.0012
     30 C         141.3950  138.3554  157.6238 C.ar    1  UNL1       -0.0029
     31 C         142.0594  139.3491  158.5300 C.ar    1  UNL1       -0.0061
     32 C         141.5010  140.7351  158.6610 C.ar    1  UNL1       -0.0029
     33 C         140.2781  141.1274  157.8859 C.ar    1  UNL1        0.0012
     34 C         143.2822  138.9568  159.3051 C.3     1  UNL1        0.0991
     35 N         143.2509  138.9550  160.8049 N.3     1  UNL1       -0.2689
     36 C         142.3375  138.0154  161.5348 C.3     1  UNL1        0.0728
     37 C         142.3063  138.0135  163.0345 C.3     1  UNL1        0.0249
     38 C         143.1885  138.9512  163.8042 C.3     1  UNL1        0.0613
     39 C         144.1019  139.8908  163.0742 C.3     1  UNL1        0.0249
     40 C         144.1331  139.8927  161.5746 C.3     1  UNL1        0.0728
     41 C         143.1572  138.9494  165.3039 C.ar    1  UNL1        0.1396
     42 N         143.8846  137.9910  166.1997 N.ar    1  UNL1       -0.1336
     43 N         143.5701  138.3549  167.6205 N.ar    1  UNL1       -0.1293
     44 C         142.6483  139.5382  167.6027 C.ar    1  UNL1        0.1633
     45 N         142.3932  139.9056  166.1710 N.ar    1  UNL1       -0.3246
     46 H         141.8241  140.6445  165.8557 H       1  UNL1        0.1686
     47 C         142.0812  140.2322  168.8056 C.ar    1  UNL1        0.0480
     48 C         140.7179  139.8636  169.3108 C.ar    1  UNL1        0.0802
     49 C         140.1508  140.5576  170.5137 C.ar    1  UNL1        0.3019
     50 N         140.9471  141.6202  171.2112 N.ar    1  UNL1       -0.1519
     51 O         140.3800  142.3142  172.4140 O.co2   1  UNL1       -0.6187
     52 C         142.3106  141.9889  170.7059 C.ar    1  UNL1        0.3019
     53 C         142.8775  141.2949  169.5032 C.ar    1  UNL1        0.0802
@<TRIPOS>UNITY_ATOM_ATTR
50 1
charge 1
51 1
charge -1
@<TRIPOS>BOND
     1    19    20    1
     2    20    21    1
     3    20    18    1
     4    18    17    1
     5    17    11    1
     6    11    12    1
     7    12    13    1
     8    13    14    1
     9    14     1    1
    10     1     2   ar
    11     2     3   ar
    12     3     4   ar
    13     4     5   ar
    14     5     6   ar
    15     6    22    1
    16    22    23   ar
    17    23    24   ar
    18    24    25   ar
    19    25    26   ar
    20    26    27   ar
    21     6     7   ar
    22     7    28    1
    23    28    29   ar
    24    29    30   ar
    25    30    31   ar
    26    31    34    1
    27    34    35    1
    28    35    36    1
    29    36    37    1
    30    37    38    1
    31    38    41    1
    32    41    42   ar
    33    42    43   ar
    34    43    44   ar
    35    44    47    1
    36    47    48   ar
    37    48    49   ar
    38    49    50   ar
    39    50    51    1
    40    50    52   ar
    41    52    53   ar
    42    44    45   ar
    43    38    39    1
    44    39    40    1
    45    31    32   ar
    46    32    33   ar
    47     7     8   ar
    48     8     9   ar
    49     9    10   ar
    50    14    15    1
    51    15    16    1
    52    16    11    1
    53    10     1   ar
    54     9     4   ar
    55    27    22   ar
    56    33    28   ar
    57    40    35    1
    58    45    41   ar
    59    53    47   ar
    60    45    46    1
@<TRIPOS>MOLECULE
*****
 53 60 0 0 0
SMALL
GASTEIGER

@<TRIPOS>ATOM
      1 C         143.3863  141.2054  163.4589 C.ar    1  UNL1        0.2216
      2 N         144.7118  141.7636  163.0328 N.ar    1  UNL1       -0.2120
      3 C         144.9156  142.2139  161.6166 C.ar    1  UNL1        0.1048
      4 C         143.7941  142.1059  160.6265 C.ar    1  UNL1        0.0551
      5 C         143.9980  142.5561  159.2102 C.ar    1  UNL1        0.0061
      6 C         142.8764  142.4481  158.2200 C.ar    1  UNL1        0.0179
      7 C         141.5509  141.8899  158.6461 C.ar    1  UNL1        0.0829
      8 N         141.3471  141.4396  160.0623 N.ar    1  UNL1       -0.2264
      9 C         142.4686  141.5476  161.0525 C.ar    1  UNL1        0.1666
     10 N         142.2648  141.0974  162.4687 N.ar    1  UNL1       -0.1945
     11 N         142.7746  139.8547  167.7076 N.3     1  UNL1       -0.2686
     12 C         142.6358  141.3059  167.3547 C.3     1  UNL1        0.0939
     13 C         142.8397  141.7562  165.9384 C.3     1  UNL1        0.1109
     14 N         143.1824  140.7552  164.8752 N.pl3   1  UNL1       -0.2753
     15 C         143.3211  139.3039  165.2281 C.3     1  UNL1        0.1109
     16 C         143.1172  138.8536  166.6443 C.3     1  UNL1        0.0939
     17 C         142.5706  139.4044  169.1238 C.3     1  UNL1        0.0897
     18 C         141.2617  139.6591  169.8106 C.3     1  UNL1        0.0897
     19 C         139.5912  141.6420  169.9765 C.3     1  UNL1        0.0897
     20 N         140.9260  141.0377  170.2975 N.3     1  UNL1       -0.2691
     21 C         141.9250  141.8118  171.1054 C.3     1  UNL1        0.0897
     22 C         143.0803  142.8983  156.8038 C.ar    1  UNL1        0.0015
     23 C         143.8652  142.0457  155.8514 C.ar    1  UNL1        0.0000
     24 C         144.0691  142.4959  154.4352 C.ar    1  UNL1        0.0000
     25 C         143.4881  143.7987  153.9713 C.ar    1  UNL1        0.0000
     26 C         142.7032  144.6513  154.9236 C.ar    1  UNL1        0.0000
     27 C         142.4993  144.2011  156.3399 C.ar    1  UNL1        0.0000
     28 C         140.4294  141.7819  157.6560 C.ar    1  UNL1        0.0177
     29 C         139.3409  142.8140  157.6401 C.ar    1  UNL1        0.0012
     30 C         138.2194  142.7060  156.6499 C.ar    1  UNL1       -0.0029
     31 C         138.1862  141.5659  155.6756 C.ar    1  UNL1       -0.0061
     32 C         139.2746  140.5338  155.6916 C.ar    1  UNL1       -0.0029
     33 C         140.3962  140.6418  156.6817 C.ar    1  UNL1        0.0012
     34 C         137.0647  141.4579  154.6855 C.3     1  UNL1        0.0991
     35 N         135.6748  141.1482  155.1574 N.3     1  UNL1       -0.2689
     36 C         134.4925  141.5716  154.3371 C.3     1  UNL1        0.0728
     37 C         133.1027  141.2620  154.8089 C.3     1  UNL1        0.0249
     38 C         132.8953  140.5290  156.1011 C.3     1  UNL1        0.0613
     39 C         134.0777  140.1056  156.9214 C.3     1  UNL1        0.0249
     40 C         135.4674  140.4152  156.4495 C.3     1  UNL1        0.0728
     41 C         131.5055  140.2193  156.5730 C.ar    1  UNL1        0.1396
     42 N         130.2330  140.5870  155.8691 N.ar    1  UNL1       -0.1336
     43 N         129.0853  140.0826  156.6927 N.ar    1  UNL1       -0.1293
     44 C         129.6486  139.4031  157.9056 C.ar    1  UNL1        0.1633
     45 N         131.1443  139.4876  157.8316 N.ar    1  UNL1       -0.3246
     46 H         131.7778  139.1263  158.4930 H       1  UNL1        0.1686
     47 C         128.8553  138.7532  159.0003 C.ar    1  UNL1        0.0480
     48 C         128.6406  137.2687  158.9911 C.ar    1  UNL1        0.0802
     49 C         127.8474  136.6188  160.0859 C.ar    1  UNL1        0.3019
     50 N         127.2687  137.4534  161.1897 N.ar    1  UNL1       -0.1519
     51 O         126.4755  136.8035  162.2844 O.co2   1  UNL1       -0.6187
     52 C         127.4834  138.9380  161.1989 C.ar    1  UNL1        0.3019
     53 C         128.2767  139.5878  160.1042 C.ar    1  UNL1        0.0802
@<TRIPOS>UNITY_ATOM_ATTR
50 1
charge 1
51 1
charge -1
@<TRIPOS>BOND
     1    19    20    1
     2    20    21    1
     3    20    18    1
     4    18    17    1
     5    17    11    1
     6    11    12    1
     7    12    13    1
     8    13    14    1
     9    14     1    1
    10     1     2   ar
    11     2     3   ar
    12     3     4   ar
    13     4     5   ar
    14     5     6   ar
    15     6    22    1
    16    22    23   ar
    17    23    24   ar
    18    24    25   ar
    19    25    26   ar
    20    26    27   ar
    21     6     7   ar
    22     7    28    1
    23    28    29   ar
    24    29    30   ar
    25    30    31   ar
    26    31    34    1
    27    34    35    1
    28    35    36    1
    29    36    37    1
    30    37    38    1
    31    38    41    1
    32    41    42   ar
    33    42    43   ar
    34    43    44   ar
    35    44    47    1
    36    47    48   ar
    37    48    49   ar
    38    49    50   ar
    39    50    51    1
    40    50    52   ar
    41    52    53   ar
    42    44    45   ar
    43    38    39    1
    44    39    40    1
    45    31    32   ar
    46    32    33   ar
    47     7     8   ar
    48     8     9   ar
    49     9    10   ar
    50    14    15    1
    51    15    16    1
    52    16    11    1
    53    10     1   ar
    54     9     4   ar
    55    27    22   ar
    56    33    28   ar
    57    40    35    1
    58    45    41   ar
    59    53    47   ar
    60    45    46    1
@<TRIPOS>MOLECULE
*****
 53 60 0 0 0
SMALL
GASTEIGER

@<TRIPOS>ATOM
      1 C         142.2926  139.8196  164.5915 C.ar    1  UNL1        0.2216
      2 N         143.4785  138.9430  164.3174 N.ar    1  UNL1       -0.2120
      3 C         143.9898  138.7898  162.9156 C.ar    1  UNL1        0.1048
      4 C         143.3153  139.5132  161.7879 C.ar    1  UNL1        0.0551
      5 C         143.8267  139.3599  160.3861 C.ar    1  UNL1        0.0061
      6 C         143.1522  140.0834  159.2584 C.ar    1  UNL1        0.0179
      7 C         141.9662  140.9600  159.5326 C.ar    1  UNL1        0.0829
      8 N         141.4549  141.1133  160.9343 N.ar    1  UNL1       -0.2264
      9 C         142.1294  140.3898  162.0620 C.ar    1  UNL1        0.1666
     10 N         141.6181  140.5430  163.4638 N.ar    1  UNL1       -0.1945
     11 N         140.7584  140.2794  168.7969 N.3     1  UNL1       -0.2686
     12 C         142.1343  139.7328  168.5561 C.3     1  UNL1        0.0939
     13 C         142.6458  139.5795  167.1542 C.3     1  UNL1        0.1109
     14 N         141.7812  139.9729  165.9933 N.pl3   1  UNL1       -0.2753
     15 C         140.4052  140.5194  166.2341 C.3     1  UNL1        0.1109
     16 C         139.8938  140.6727  167.6358 C.3     1  UNL1        0.0939
     17 C         140.2470  140.4326  170.1986 C.3     1  UNL1        0.0897
     18 C         140.7451  141.5549  171.0602 C.3     1  UNL1        0.0897
     19 C         140.4494  143.8125  169.8087 C.3     1  UNL1        0.0897
     20 N         141.3413  142.7778  170.4283 N.3     1  UNL1       -0.2691
     21 C         142.8294  142.9659  170.4160 C.3     1  UNL1        0.0897
     22 C         143.6635  139.9302  157.8566 C.ar    1  UNL1        0.0015
     23 C         144.7253  140.8554  157.3402 C.ar    1  UNL1        0.0000
     24 C         145.2366  140.7022  155.9385 C.ar    1  UNL1        0.0000
     25 C         144.6862  139.6238  155.0530 C.ar    1  UNL1        0.0000
     26 C         143.6245  138.6985  155.5694 C.ar    1  UNL1        0.0000
     27 C         143.1131  138.8517  156.9712 C.ar    1  UNL1        0.0000
     28 C         141.2917  141.6835  158.4049 C.ar    1  UNL1        0.0177
     29 C         140.1656  141.0288  157.6609 C.ar    1  UNL1        0.0012
     30 C         139.4911  141.7523  156.5332 C.ar    1  UNL1       -0.0029
     31 C         139.9426  143.1303  156.1495 C.ar    1  UNL1       -0.0061
     32 C         141.0687  143.7849  156.8935 C.ar    1  UNL1       -0.0029
     33 C         141.7432  143.0615  158.0212 C.ar    1  UNL1        0.0012
     34 C         139.2681  143.8537  155.0218 C.3     1  UNL1        0.0991
     35 N         139.4726  145.3297  154.8487 N.3     1  UNL1       -0.2689
     36 C         138.6777  146.2987  155.6728 C.3     1  UNL1        0.0728
     37 C         138.8822  147.7746  155.4997 C.3     1  UNL1        0.0249
     38 C         139.8816  148.2815  154.5025 C.3     1  UNL1        0.0613
     39 C         140.6765  147.3123  153.6784 C.3     1  UNL1        0.0249
     40 C         140.4720  145.8365  153.8516 C.3     1  UNL1        0.0728
     41 C         140.0861  149.7573  154.3294 C.ar    1  UNL1        0.1396
     42 N         139.0593  150.8240  154.5702 N.ar    1  UNL1       -0.1336
     43 N         139.6919  152.1515  154.2747 N.ar    1  UNL1       -0.1293
     44 C         141.1097  151.9053  153.8512 C.ar    1  UNL1        0.1633
     45 N         141.3533  150.4256  153.8850 N.ar    1  UNL1       -0.3246
     46 H         142.1968  149.9726  153.6558 H       1  UNL1        0.1686
     47 C         142.1086  152.9546  153.4622 C.ar    1  UNL1        0.0480
     48 C         141.6562  154.3609  153.2021 C.ar    1  UNL1        0.0802
     49 C         142.6551  155.4103  152.8131 C.ar    1  UNL1        0.3019
     50 N         144.1062  155.0533  152.6843 N.ar    1  UNL1       -0.1519
     51 O         145.1050  156.1025  152.2953 O.co2   1  UNL1       -0.6187
     52 C         144.5586  153.6469  152.9444 C.ar    1  UNL1        0.3019
     53 C         143.5598  152.5977  153.3334 C.ar    1  UNL1        0.0802
@<TRIPOS>UNITY_ATOM_ATTR
50 1
charge 1
51 1
charge -1
@<TRIPOS>BOND
     1    19    20    1
     2    20    21    1
     3    20    18    1
     4    18    17    1
     5    17    11    1
     6    11    12    1
     7    12    13    1
     8    13    14    1
     9    14     1    1
    10     1     2   ar
    11     2     3   ar
    12     3     4   ar
    13     4     5   ar
    14     5     6   ar
    15     6    22    1
    16    22    23   ar
    17    23    24   ar
    18    24    25   ar
    19    25    26   ar
    20    26    27   ar
    21     6     7   ar
    22     7    28    1
    23    28    29   ar
    24    29    30   ar
    25    30    31   ar
    26    31    34    1
    27    34    35    1
    28    35    36    1
    29    36    37    1
    30    37    38    1
    31    38    41    1
    32    41    42   ar
    33    42    43   ar
    34    43    44   ar
    35    44    47    1
    36    47    48   ar
    37    48    49   ar
    38    49    50   ar
    39    50    51    1
    40    50    52   ar
    41    52    53   ar
    42    44    45   ar
    43    38    39    1
    44    39    40    1
    45    31    32   ar
    46    32    33   ar
    47     7     8   ar
    48     8     9   ar
    49     9    10   ar
    50    14    15    1
    51    15    16    1
    52    16    11    1
    53    10     1   ar
    54     9     4   ar
    55    27    22   ar
    56    33    28   ar
    57    40    35    1
    58    45    41   ar
    59    53    47   ar
    60    45    46    1
@<TRIPOS>MOLECULE
*****
 53 60 0 0 0
SMALL
GASTEIGER

@<TRIPOS>ATOM
      1 C         140.1018  148.8959  154.0253 C.ar    1  UNL1        0.2216
      2 N         140.9093  148.4489  152.8429 N.ar    1  UNL1       -0.2120
      3 C         141.1998  146.9912  152.6410 C.ar    1  UNL1        0.1048
      4 C         140.6827  145.9806  153.6215 C.ar    1  UNL1        0.0551
      5 C         140.9732  144.5229  153.4195 C.ar    1  UNL1        0.0061
      6 C         140.4562  143.5123  154.4000 C.ar    1  UNL1        0.0179
      7 C         139.6486  143.9594  155.5824 C.ar    1  UNL1        0.0829
      8 N         139.3581  145.4170  155.7843 N.ar    1  UNL1       -0.2264
      9 C         139.8752  146.4277  154.8038 C.ar    1  UNL1        0.1666
     10 N         139.5847  147.8853  155.0057 N.ar    1  UNL1       -0.1945
     11 N         139.2303  153.2690  154.6312 N.3     1  UNL1       -0.2686
     12 C         140.1581  152.8340  153.5358 C.3     1  UNL1        0.0939
     13 C         140.4486  151.3762  153.3338 C.3     1  UNL1        0.1109
     14 N         139.8113  150.3537  154.2272 N.pl3   1  UNL1       -0.2753
     15 C         138.8835  150.7888  155.3226 C.3     1  UNL1        0.1109
     16 C         138.5929  152.2464  155.5246 C.3     1  UNL1        0.0939
     17 C         138.9398  154.7267  154.8331 C.3     1  UNL1        0.0897
     18 C         137.5293  155.1867  155.0539 C.3     1  UNL1        0.0897
     19 C         138.0755  155.6665  157.5482 C.3     1  UNL1        0.0897
     20 N         137.1028  155.6755  156.4065 N.3     1  UNL1       -0.2691
     21 C         135.7035  156.1732  156.6171 C.3     1  UNL1        0.0897
     22 C         140.7466  142.0546  154.1981 C.ar    1  UNL1        0.0015
     23 C         139.7564  141.1847  153.4818 C.ar    1  UNL1        0.0000
     24 C         140.0469  139.7270  153.2799 C.ar    1  UNL1        0.0000
     25 C         141.3275  139.1392  153.7942 C.ar    1  UNL1        0.0000
     26 C         142.3176  140.0090  154.5104 C.ar    1  UNL1        0.0000
     27 C         142.0272  141.4668  154.7123 C.ar    1  UNL1        0.0000
     28 C         139.1315  142.9488  156.5628 C.ar    1  UNL1        0.0177
     29 C         137.7459  142.3951  156.4088 C.ar    1  UNL1        0.0012
     30 C         137.2289  141.3845  157.3893 C.ar    1  UNL1       -0.0029
     31 C         138.0974  140.9275  158.5238 C.ar    1  UNL1       -0.0061
     32 C         139.4829  141.4812  158.6777 C.ar    1  UNL1       -0.0029
     33 C         140.0000  142.4918  157.6972 C.ar    1  UNL1        0.0012
     34 C         137.5804  139.9169  159.5042 C.3     1  UNL1        0.0991
     35 N         137.9698  140.0072  160.9500 N.3     1  UNL1       -0.2689
     36 C         138.6158  138.8350  161.6273 C.3     1  UNL1        0.0728
     37 C         139.0052  138.9253  163.0732 C.3     1  UNL1        0.0249
     38 C         138.7485  140.1877  163.8416 C.3     1  UNL1        0.0613
     39 C         138.1025  141.3599  163.1642 C.3     1  UNL1        0.0249
     40 C         137.7132  141.2696  161.7184 C.3     1  UNL1        0.0728
     41 C         139.1379  140.2780  165.2873 C.ar    1  UNL1        0.1396
     42 N         138.6440  139.3898  166.3906 N.ar    1  UNL1       -0.1336
     43 N         139.2904  139.8352  167.6688 N.ar    1  UNL1       -0.1293
     44 C         140.1838  140.9987  167.3554 C.ar    1  UNL1        0.1633
     45 N         140.0896  141.2724  165.8836 N.ar    1  UNL1       -0.3246
     46 H         140.5683  141.9803  165.3948 H       1  UNL1        0.1686
     47 C         141.0240  141.7557  168.3409 C.ar    1  UNL1        0.0480
     48 C         140.4291  142.8946  169.1148 C.ar    1  UNL1        0.0802
     49 C         141.2693  143.6516  170.1003 C.ar    1  UNL1        0.3019
     50 N         142.7043  143.2696  170.3119 N.ar    1  UNL1       -0.1519
     51 O         143.5444  144.0265  171.2974 O.co2   1  UNL1       -0.6187
     52 C         143.2992  142.1306  169.5379 C.ar    1  UNL1        0.3019
     53 C         142.4590  141.3737  168.5525 C.ar    1  UNL1        0.0802
@<TRIPOS>UNITY_ATOM_ATTR
50 1
charge 1
51 1
charge -1
@<TRIPOS>BOND
     1    19    20    1
     2    20    21    1
     3    20    18    1
     4    18    17    1
     5    17    11    1
     6    11    12    1
     7    12    13    1
     8    13    14    1
     9    14     1    1
    10     1     2   ar
    11     2     3   ar
    12     3     4   ar
    13     4     5   ar
    14     5     6   ar
    15     6    22    1
    16    22    23   ar
    17    23    24   ar
    18    24    25   ar
    19    25    26   ar
    20    26    27   ar
    21     6     7   ar
    22     7    28    1
    23    28    29   ar
    24    29    30   ar
    25    30    31   ar
    26    31    34    1
    27    34    35    1
    28    35    36    1
    29    36    37    1
    30    37    38    1
    31    38    41    1
    32    41    42   ar
    33    42    43   ar
    34    43    44   ar
    35    44    47    1
    36    47    48   ar
    37    48    49   ar
    38    49    50   ar
    39    50    51    1
    40    50    52   ar
    41    52    53   ar
    42    44    45   ar
    43    38    39    1
    44    39    40    1
    45    31    32   ar
    46    32    33   ar
    47     7     8   ar
    48     8     9   ar
    49     9    10   ar
    50    14    15    1
    51    15    16    1
    52    16    11    1
    53    10     1   ar
    54     9     4   ar
    55    27    22   ar
    56    33    28   ar
    57    40    35    1
    58    45    41   ar
    59    53    47   ar
    60    45    46    1
@<TRIPOS>MOLECULE
*****
 53 60 0 0 0
SMALL
GASTEIGER

@<TRIPOS>ATOM
      1 C         147.5969  143.1717  153.9504 C.ar    1  UNL1        0.2216
      2 N         146.9924  144.3282  153.2109 N.ar    1  UNL1       -0.2120
      3 C         145.5183  144.5895  153.3033 C.ar    1  UNL1        0.1048
      4 C         144.6486  143.6942  154.1354 C.ar    1  UNL1        0.0551
      5 C         143.1744  143.9556  154.2278 C.ar    1  UNL1        0.0061
      6 C         142.3048  143.0603  155.0598 C.ar    1  UNL1        0.0179
      7 C         142.9094  141.9037  155.7994 C.ar    1  UNL1        0.0829
      8 N         144.3835  141.6424  155.7069 N.ar    1  UNL1       -0.2264
      9 C         145.2532  142.5377  154.8749 C.ar    1  UNL1        0.1666
     10 N         146.7273  142.2764  154.7824 N.ar    1  UNL1       -0.1945
     11 N         152.0195  142.3877  153.6730 N.3     1  UNL1       -0.2686
     12 C         151.4190  143.5593  152.9541 C.3     1  UNL1        0.0939
     13 C         149.9447  143.8206  153.0466 C.3     1  UNL1        0.1109
     14 N         149.0711  142.9104  153.8579 N.pl3   1  UNL1       -0.2753
     15 C         149.6717  141.7388  154.5768 C.3     1  UNL1        0.1109
     16 C         151.1458  141.4774  154.4844 C.3     1  UNL1        0.0939
     17 C         153.4936  142.1263  153.5806 C.3     1  UNL1        0.0897
     18 C         153.9919  140.7529  153.2411 C.3     1  UNL1        0.0897
     19 C         155.9727  139.0768  153.1091 C.3     1  UNL1        0.0897
     20 N         155.3607  140.3223  153.6784 N.3     1  UNL1       -0.2691
     21 C         156.1174  141.1373  154.6850 C.3     1  UNL1        0.0897
     22 C         140.8307  143.3216  155.1523 C.ar    1  UNL1        0.0015
     23 C         140.3113  144.3621  156.0999 C.ar    1  UNL1        0.0000
     24 C         138.8372  144.6233  156.1923 C.ar    1  UNL1        0.0000
     25 C         137.8823  143.8441  155.3374 C.ar    1  UNL1        0.0000
     26 C         138.4015  142.8037  154.3899 C.ar    1  UNL1        0.0000
     27 C         139.8758  142.5424  154.2973 C.ar    1  UNL1        0.0000
     28 C         142.0398  141.0084  156.6314 C.ar    1  UNL1        0.0177
     29 C         141.5630  139.6990  156.0763 C.ar    1  UNL1        0.0012
     30 C         140.6934  138.8037  156.9083 C.ar    1  UNL1       -0.0029
     31 C         140.3005  139.2179  158.2954 C.ar    1  UNL1       -0.0061
     32 C         140.7772  140.5273  158.8505 C.ar    1  UNL1       -0.0029
     33 C         141.6469  141.4226  158.0185 C.ar    1  UNL1        0.0012
     34 C         139.4309  138.3226  159.1275 C.3     1  UNL1        0.0991
     35 N         139.3470  138.5265  160.6112 N.3     1  UNL1       -0.2689
     36 C         138.1295  139.1632  161.2132 C.3     1  UNL1        0.0728
     37 C         138.0457  139.3670  162.6969 C.3     1  UNL1        0.0249
     38 C         139.1793  138.9341  163.5787 C.3     1  UNL1        0.0613
     39 C         140.3968  138.2973  162.9767 C.3     1  UNL1        0.0249
     40 C         140.4806  138.0935  161.4930 C.3     1  UNL1        0.0728
     41 C         139.0954  139.1379  165.0624 C.ar    1  UNL1        0.1396
     42 N         138.0686  138.5399  165.9779 N.ar    1  UNL1       -0.1336
     43 N         138.3622  139.0079  167.3724 N.ar    1  UNL1       -0.1293
     44 C         139.5706  139.8951  167.3188 C.ar    1  UNL1        0.1633
     45 N         140.0237  139.9754  165.8911 N.ar    1  UNL1       -0.3246
     46 H         140.7950  140.4878  165.5567 H       1  UNL1        0.1686
     47 C         140.2131  140.5814  168.4877 C.ar    1  UNL1        0.0480
     48 C         140.7615  141.9691  168.3339 C.ar    1  UNL1        0.0802
     49 C         141.4039  142.6554  169.5028 C.ar    1  UNL1        0.3019
     50 N         141.4979  141.9541  170.8254 N.ar    1  UNL1       -0.1519
     51 O         142.1403  142.6404  171.9942 O.co2   1  UNL1       -0.6187
     52 C         140.9495  140.5664  170.9791 C.ar    1  UNL1        0.3019
     53 C         140.3071  139.8801  169.8103 C.ar    1  UNL1        0.0802
@<TRIPOS>UNITY_ATOM_ATTR
50 1
charge 1
51 1
charge -1
@<TRIPOS>BOND
     1    19    20    1
     2    20    21    1
     3    20    18    1
     4    18    17    1
     5    17    11    1
     6    11    12    1
     7    12    13    1
     8    13    14    1
     9    14     1    1
    10     1     2   ar
    11     2     3   ar
    12     3     4   ar
    13     4     5   ar
    14     5     6   ar
    15     6    22    1
    16    22    23   ar
    17    23    24   ar
    18    24    25   ar
    19    25    26   ar
    20    26    27   ar
    21     6     7   ar
    22     7    28    1
    23    28    29   ar
    24    29    30   ar
    25    30    31   ar
    26    31    34    1
    27    34    35    1
    28    35    36    1
    29    36    37    1
    30    37    38    1
    31    38    41    1
    32    41    42   ar
    33    42    43   ar
    34    43    44   ar
    35    44    47    1
    36    47    48   ar
    37    48    49   ar
    38    49    50   ar
    39    50    51    1
    40    50    52   ar
    41    52    53   ar
    42    44    45   ar
    43    38    39    1
    44    39    40    1
    45    31    32   ar
    46    32    33   ar
    47     7     8   ar
    48     8     9   ar
    49     9    10   ar
    50    14    15    1
    51    15    16    1
    52    16    11    1
    53    10     1   ar
    54     9     4   ar
    55    27    22   ar
    56    33    28   ar
    57    40    35    1
    58    45    41   ar
    59    53    47   ar
    60    45    46    1
@<TRIPOS>MOLECULE
*****
 53 60 0 0 0
SMALL
GASTEIGER

@<TRIPOS>ATOM
      1 C         141.1897  142.5214  164.2753 C.ar    1  UNL1        0.2216
      2 N         141.1658  144.0137  164.1254 N.ar    1  UNL1       -0.2120
      3 C         141.1257  144.6295  162.7583 C.ar    1  UNL1        0.1048
      4 C         141.1095  143.7530  161.5411 C.ar    1  UNL1        0.0551
      5 C         141.0694  144.3689  160.1739 C.ar    1  UNL1        0.0061
      6 C         141.0531  143.4925  158.9567 C.ar    1  UNL1        0.0179
      7 C         141.0769  142.0001  159.1067 C.ar    1  UNL1        0.0829
      8 N         141.1170  141.3843  160.4738 N.ar    1  UNL1       -0.2264
      9 C         141.1333  142.2608  161.6910 C.ar    1  UNL1        0.1666
     10 N         141.1734  141.6450  163.0581 N.ar    1  UNL1       -0.1945
     11 N         141.3099  140.6738  168.3768 N.3     1  UNL1       -0.2686
     12 C         142.5868  141.0549  167.6882 C.3     1  UNL1        0.0939
     13 C         142.5467  141.6708  166.3210 C.3     1  UNL1        0.1109
     14 N         141.2298  141.9055  165.6425 N.pl3   1  UNL1       -0.2753
     15 C         139.9528  141.5244  166.3311 C.3     1  UNL1        0.1109
     16 C         139.9929  140.9085  167.6983 C.3     1  UNL1        0.0939
     17 C         141.3500  140.0579  169.7440 C.3     1  UNL1        0.0897
     18 C         141.3374  140.9337  170.9617 C.3     1  UNL1        0.0897
     19 C         139.9257  143.1085  170.7960 C.3     1  UNL1        0.0897
     20 N         141.2605  142.4243  170.8127 N.3     1  UNL1       -0.2691
     21 C         142.5183  143.2307  170.6805 C.3     1  UNL1        0.0897
     22 C         141.0130  144.1083  157.5895 C.ar    1  UNL1        0.0015
     23 C         142.2898  144.4922  156.9021 C.ar    1  UNL1        0.0000
     24 C         142.2497  145.1080  155.5350 C.ar    1  UNL1        0.0000
     25 C         140.9328  145.3399  154.8552 C.ar    1  UNL1        0.0000
     26 C         139.6561  144.9560  155.5425 C.ar    1  UNL1        0.0000
     27 C         139.6961  144.3402  156.9097 C.ar    1  UNL1        0.0000
     28 C         141.0607  141.1237  157.8895 C.ar    1  UNL1        0.0177
     29 C         142.3464  140.7715  157.2016 C.ar    1  UNL1        0.0012
     30 C         142.3301  139.8951  155.9844 C.ar    1  UNL1       -0.0029
     31 C         141.0282  139.3708  155.4551 C.ar    1  UNL1       -0.0061
     32 C         139.7426  139.7229  156.1429 C.ar    1  UNL1       -0.0029
     33 C         139.7588  140.5994  157.3601 C.ar    1  UNL1        0.0012
     34 C         141.0119  138.4943  154.2379 C.3     1  UNL1        0.0991
     35 N         141.4296  137.0574  154.3427 N.3     1  UNL1       -0.2689
     36 C         141.7132  136.2663  153.1003 C.3     1  UNL1        0.0728
     37 C         142.1309  134.8294  153.2051 C.3     1  UNL1        0.0249
     38 C         142.2650  134.1837  154.5524 C.3     1  UNL1        0.0613
     39 C         141.9814  134.9749  155.7948 C.3     1  UNL1        0.0249
     40 C         141.5637  136.4117  155.6900 C.3     1  UNL1        0.0728
     41 C         142.6827  132.7469  154.6572 C.ar    1  UNL1        0.1396
     42 N         142.5339  131.7052  153.5882 N.ar    1  UNL1       -0.1336
     43 N         143.0818  130.4139  154.1198 N.ar    1  UNL1       -0.1293
     44 C         143.5691  130.6576  155.5174 C.ar    1  UNL1        0.1633
     45 N         143.3224  132.0995  155.8495 N.ar    1  UNL1       -0.3246
     46 H         143.5419  132.5430  156.7006 H       1  UNL1        0.1686
     47 C         144.1934  129.6384  156.4237 C.ar    1  UNL1        0.0480
     48 C         144.8084  128.3981  155.8465 C.ar    1  UNL1        0.0802
     49 C         145.4328  127.3788  156.7528 C.ar    1  UNL1        0.3019
     50 N         145.4421  127.6000  158.2364 N.ar    1  UNL1       -0.1519
     51 O         146.0665  126.5808  159.1427 O.co2   1  UNL1       -0.6187
     52 C         144.8271  128.8405  158.8137 C.ar    1  UNL1        0.3019
     53 C         144.2028  129.8596  157.9073 C.ar    1  UNL1        0.0802
@<TRIPOS>UNITY_ATOM_ATTR
50 1
charge 1
51 1
charge -1
@<TRIPOS>BOND
     1    19    20    1
     2    20    21    1
     3    20    18    1
     4    18    17    1
     5    17    11    1
     6    11    12    1
     7    12    13    1
     8    13    14    1
     9    14     1    1
    10     1     2   ar
    11     2     3   ar
    12     3     4   ar
    13     4     5   ar
    14     5     6   ar
    15     6    22    1
    16    22    23   ar
    17    23    24   ar
    18    24    25   ar
    19    25    26   ar
    20    26    27   ar
    21     6     7   ar
    22     7    28    1
    23    28    29   ar
    24    29    30   ar
    25    30    31   ar
    26    31    34    1
    27    34    35    1
    28    35    36    1
    29    36    37    1
    30    37    38    1
    31    38    41    1
    32    41    42   ar
    33    42    43   ar
    34    43    44   ar
    35    44    47    1
    36    47    48   ar
    37    48    49   ar
    38    49    50   ar
    39    50    51    1
    40    50    52   ar
    41    52    53   ar
    42    44    45   ar
    43    38    39    1
    44    39    40    1
    45    31    32   ar
    46    32    33   ar
    47     7     8   ar
    48     8     9   ar
    49     9    10   ar
    50    14    15    1
    51    15    16    1
    52    16    11    1
    53    10     1   ar
    54     9     4   ar
    55    27    22   ar
    56    33    28   ar
    57    40    35    1
    58    45    41   ar
    59    53    47   ar
    60    45    46    1
@<TRIPOS>MOLECULE
*****
 53 60 0 0 0
SMALL
GASTEIGER

@<TRIPOS>ATOM
      1 C         149.9637  142.8122  153.7425 C.ar    1  UNL1        0.2216
      2 N         149.3606  144.0158  153.0812 N.ar    1  UNL1       -0.2120
      3 C         147.8921  144.2895  153.2175 C.ar    1  UNL1        0.1048
      4 C         147.0268  143.3596  154.0152 C.ar    1  UNL1        0.0551
      5 C         145.5582  143.6334  154.1515 C.ar    1  UNL1        0.0061
      6 C         144.6928  142.7034  154.9492 C.ar    1  UNL1        0.0179
      7 C         145.2960  141.4997  155.6106 C.ar    1  UNL1        0.0829
      8 N         146.7645  141.2260  155.4742 N.ar    1  UNL1       -0.2264
      9 C         147.6298  142.1559  154.6766 C.ar    1  UNL1        0.1666
     10 N         149.0983  141.8822  154.5402 N.ar    1  UNL1       -0.1945
     11 N         154.3693  141.9908  153.3336 N.3     1  UNL1       -0.2686
     12 C         153.8924  143.3707  153.6780 C.3     1  UNL1        0.0939
     13 C         152.4238  143.6445  153.8143 C.3     1  UNL1        0.1109
     14 N         151.4322  142.5384  153.6062 N.pl3   1  UNL1       -0.2753
     15 C         151.9091  141.1586  153.2618 C.3     1  UNL1        0.1109
     16 C         153.3776  140.8848  153.1255 C.3     1  UNL1        0.0939
     17 C         155.8377  141.7170  153.1973 C.3     1  UNL1        0.0897
     18 C         156.3077  140.4856  152.4814 C.3     1  UNL1        0.0897
     19 C         156.4714  139.1755  154.7190 C.3     1  UNL1        0.0897
     20 N         156.4180  139.1847  153.2200 N.3     1  UNL1       -0.2691
     21 C         156.4748  137.8930  152.4596 C.3     1  UNL1        0.0897
     22 C         143.2244  142.9771  155.0855 C.ar    1  UNL1        0.0015
     23 C         142.7360  143.9558  156.1121 C.ar    1  UNL1        0.0000
     24 C         141.2675  144.2295  156.2484 C.ar    1  UNL1        0.0000
     25 C         140.2874  143.5246  155.3582 C.ar    1  UNL1        0.0000
     26 C         140.7757  142.5459  154.3317 C.ar    1  UNL1        0.0000
     27 C         142.2442  142.2722  154.1953 C.ar    1  UNL1        0.0000
     28 C         144.4306  140.5698  156.4083 C.ar    1  UNL1        0.0177
     29 C         143.9679  139.2754  155.8077 C.ar    1  UNL1        0.0012
     30 C         143.1025  138.3455  156.6053 C.ar    1  UNL1       -0.0029
     31 C         142.6998  138.7099  158.0036 C.ar    1  UNL1       -0.0061
     32 C         143.1626  140.0041  158.6042 C.ar    1  UNL1       -0.0029
     33 C         144.0280  140.9341  157.8065 C.ar    1  UNL1        0.0012
     34 C         141.8345  137.7799  158.8013 C.3     1  UNL1        0.0991
     35 N         141.3489  138.1880  160.1607 N.3     1  UNL1       -0.2689
     36 C         142.2432  138.0315  161.3547 C.3     1  UNL1        0.0728
     37 C         141.7577  138.4397  162.7141 C.3     1  UNL1        0.0249
     38 C         140.3779  139.0042  162.8793 C.3     1  UNL1        0.0613
     39 C         139.4836  139.1607  161.6852 C.3     1  UNL1        0.0249
     40 C         139.9691  138.7526  160.3260 C.3     1  UNL1        0.0728
     41 C         139.8923  139.4123  164.2386 C.ar    1  UNL1        0.1396
     42 N         138.4753  139.3441  164.7259 N.ar    1  UNL1       -0.1336
     43 N         138.4457  139.8499  166.1377 N.ar    1  UNL1       -0.1293
     44 C         139.8445  140.2308  166.5230 C.ar    1  UNL1        0.1633
     45 N         140.7385  139.9604  165.3492 N.ar    1  UNL1       -0.3246
     46 H         141.7101  140.1154  165.3140 H       1  UNL1        0.1686
     47 C         140.2739  140.7849  167.8491 C.ar    1  UNL1        0.0480
     48 C         140.3942  139.8777  169.0375 C.ar    1  UNL1        0.0802
     49 C         140.8236  140.4317  170.3637 C.ar    1  UNL1        0.3019
     50 N         141.1326  141.8931  170.5014 N.ar    1  UNL1       -0.1519
     51 O         141.5619  142.4471  171.8275 O.co2   1  UNL1       -0.6187
     52 C         141.0122  142.8004  169.3129 C.ar    1  UNL1        0.3019
     53 C         140.5829  142.2463  167.9868 C.ar    1  UNL1        0.0802
@<TRIPOS>UNITY_ATOM_ATTR
50 1
charge 1
51 1
charge -1
@<TRIPOS>BOND
     1    19    20    1
     2    20    21    1
     3    20    18    1
     4    18    17    1
     5    17    11    1
     6    11    12    1
     7    12    13    1
     8    13    14    1
     9    14     1    1
    10     1     2   ar
    11     2     3   ar
    12     3     4   ar
    13     4     5   ar
    14     5     6   ar
    15     6    22    1
    16    22    23   ar
    17    23    24   ar
    18    24    25   ar
    19    25    26   ar
    20    26    27   ar
    21     6     7   ar
    22     7    28    1
    23    28    29   ar
    24    29    30   ar
    25    30    31   ar
    26    31    34    1
    27    34    35    1
    28    35    36    1
    29    36    37    1
    30    37    38    1
    31    38    41    1
    32    41    42   ar
    33    42    43   ar
    34    43    44   ar
    35    44    47    1
    36    47    48   ar
    37    48    49   ar
    38    49    50   ar
    39    50    51    1
    40    50    52   ar
    41    52    53   ar
    42    44    45   ar
    43    38    39    1
    44    39    40    1
    45    31    32   ar
    46    32    33   ar
    47     7     8   ar
    48     8     9   ar
    49     9    10   ar
    50    14    15    1
    51    15    16    1
    52    16    11    1
    53    10     1   ar
    54     9     4   ar
    55    27    22   ar
    56    33    28   ar
    57    40    35    1
    58    45    41   ar
    59    53    47   ar
    60    45    46    1
@<TRIPOS>MOLECULE
*****
 53 60 0 0 0
SMALL
GASTEIGER

@<TRIPOS>ATOM
      1 C         140.3683  147.9768  153.9758 C.ar    1  UNL1        0.2216
      2 N         140.9542  147.7182  152.6194 N.ar    1  UNL1       -0.2120
      3 C         141.3509  146.3259  152.2269 C.ar    1  UNL1        0.1048
      4 C         141.1618  145.1923  153.1907 C.ar    1  UNL1        0.0551
      5 C         141.5585  143.7999  152.7982 C.ar    1  UNL1        0.0061
      6 C         141.3694  142.6663  153.7620 C.ar    1  UNL1        0.0179
      7 C         140.7835  142.9250  155.1185 C.ar    1  UNL1        0.0829
      8 N         140.3867  144.3172  155.5110 N.ar    1  UNL1       -0.2264
      9 C         140.5759  145.4509  154.5471 C.ar    1  UNL1        0.1666
     10 N         140.1791  146.8432  154.9396 N.ar    1  UNL1       -0.1945
     11 N         139.1780  152.1538  155.1534 N.3     1  UNL1       -0.2686
     12 C         138.4363  150.9765  155.7136 C.3     1  UNL1        0.0939
     13 C         138.8331  149.5841  155.3211 C.3     1  UNL1        0.1109
     14 N         139.9715  149.3692  154.3683 N.pl3   1  UNL1       -0.2753
     15 C         140.7132  150.5465  153.8081 C.3     1  UNL1        0.1109
     16 C         140.3165  151.9388  154.2006 C.3     1  UNL1        0.0939
     17 C         138.7813  153.5461  155.5460 C.3     1  UNL1        0.0897
     18 C         137.6933  154.2555  154.7957 C.3     1  UNL1        0.0897
     19 C         137.4584  155.9582  156.7440 C.3     1  UNL1        0.0897
     20 N         137.0122  155.4437  155.4076 N.3     1  UNL1       -0.2691
     21 C         135.8848  156.1174  154.6829 C.3     1  UNL1        0.0897
     22 C         141.7661  141.2740  153.3695 C.ar    1  UNL1        0.0015
     23 C         143.1949  140.8362  153.5004 C.ar    1  UNL1        0.0000
     24 C         143.5916  139.4439  153.1079 C.ar    1  UNL1        0.0000
     25 C         142.5597  138.4894  152.5845 C.ar    1  UNL1        0.0000
     26 C         141.1310  138.9271  152.4536 C.ar    1  UNL1        0.0000
     27 C         140.7342  140.3195  152.8461 C.ar    1  UNL1        0.0000
     28 C         140.5943  141.7913  156.0823 C.ar    1  UNL1        0.0177
     29 C         139.2445  141.1554  156.2367 C.ar    1  UNL1        0.0012
     30 C         139.0554  140.0217  157.2006 C.ar    1  UNL1       -0.0029
     31 C         140.2160  139.5240  158.0101 C.ar    1  UNL1       -0.0061
     32 C         141.5657  140.1599  157.8557 C.ar    1  UNL1       -0.0029
     33 C         141.7549  141.2935  156.8918 C.ar    1  UNL1        0.0012
     34 C         140.0269  138.3903  158.9740 C.3     1  UNL1        0.0991
     35 N         140.4690  138.5366  160.3999 N.3     1  UNL1       -0.2689
     36 C         139.5754  139.2132  161.3966 C.3     1  UNL1        0.0728
     37 C         140.0176  139.3594  162.8225 C.3     1  UNL1        0.0249
     38 C         141.3534  138.8290  163.2516 C.3     1  UNL1        0.0613
     39 C         142.2471  138.1523  162.2548 C.3     1  UNL1        0.0249
     40 C         141.8049  138.0061  160.8290 C.3     1  UNL1        0.0728
     41 C         141.7956  138.9752  164.6775 C.ar    1  UNL1        0.1396
     42 N         143.0254  138.3689  165.2858 N.ar    1  UNL1       -0.1336
     43 N         143.0755  138.7723  166.7296 N.ar    1  UNL1       -0.1293
     44 C         141.8766  139.6280  167.0137 C.ar    1  UNL1        0.1633
     45 N         141.0856  139.7533  165.7454 N.ar    1  UNL1       -0.3246
     46 H         140.2476  140.2578  165.6335 H       1  UNL1        0.1686
     47 C         141.5297  140.2492  168.3342 C.ar    1  UNL1        0.0480
     48 C         140.1273  140.7096  168.6011 C.ar    1  UNL1        0.0802
     49 C         139.7803  141.3308  169.9216 C.ar    1  UNL1        0.3019
     50 N         140.8358  141.4917  170.9752 N.ar    1  UNL1       -0.1519
     51 O         140.4889  142.1128  172.2956 O.co2   1  UNL1       -0.6187
     52 C         142.2383  141.0312  170.7082 C.ar    1  UNL1        0.3019
     53 C         142.5851  140.4100  169.3878 C.ar    1  UNL1        0.0802
@<TRIPOS>UNITY_ATOM_ATTR
50 1
charge 1
51 1
charge -1
@<TRIPOS>BOND
     1    19    20    1
     2    20    21    1
     3    20    18    1
     4    18    17    1
     5    17    11    1
     6    11    12    1
     7    12    13    1
     8    13    14    1
     9    14     1    1
    10     1     2   ar
    11     2     3   ar
    12     3     4   ar
    13     4     5   ar
    14     5     6   ar
    15     6    22    1
    16    22    23   ar
    17    23    24   ar
    18    24    25   ar
    19    25    26   ar
    20    26    27   ar
    21     6     7   ar
    22     7    28    1
    23    28    29   ar
    24    29    30   ar
    25    30    31   ar
    26    31    34    1
    27    34    35    1
    28    35    36    1
    29    36    37    1
    30    37    38    1
    31    38    41    1
    32    41    42   ar
    33    42    43   ar
    34    43    44   ar
    35    44    47    1
    36    47    48   ar
    37    48    49   ar
    38    49    50   ar
    39    50    51    1
    40    50    52   ar
    41    52    53   ar
    42    44    45   ar
    43    38    39    1
    44    39    40    1
    45    31    32   ar
    46    32    33   ar
    47     7     8   ar
    48     8     9   ar
    49     9    10   ar
    50    14    15    1
    51    15    16    1
    52    16    11    1
    53    10     1   ar
    54     9     4   ar
    55    27    22   ar
    56    33    28   ar
    57    40    35    1
    58    45    41   ar
    59    53    47   ar
    60    45    46    1
@<TRIPOS>MOLECULE
*****
 53 60 0 0 0
SMALL
GASTEIGER

@<TRIPOS>ATOM
      1 C         139.7552  147.1922  155.5199 C.ar    1  UNL1        0.2216
      2 N         140.1318  146.1184  154.5426 N.ar    1  UNL1       -0.2120
      3 C         140.4130  144.7274  155.0283 C.ar    1  UNL1        0.1048
      4 C         140.3177  144.4101  156.4912 C.ar    1  UNL1        0.0551
      5 C         140.5990  143.0190  156.9769 C.ar    1  UNL1        0.0061
      6 C         140.5037  142.7018  158.4399 C.ar    1  UNL1        0.0179
      7 C         140.1271  143.7757  159.4172 C.ar    1  UNL1        0.0829
      8 N         139.8459  145.1667  158.9315 N.ar    1  UNL1       -0.2264
      9 C         139.9412  145.4839  157.4685 C.ar    1  UNL1        0.1666
     10 N         139.6599  146.8749  156.9828 N.ar    1  UNL1       -0.1945
     11 N         138.9114  151.3654  154.0629 N.3     1  UNL1       -0.2686
     12 C         139.6563  150.4017  153.1875 C.3     1  UNL1        0.0939
     13 C         139.9375  149.0106  153.6732 C.3     1  UNL1        0.1109
     14 N         139.4740  148.5833  155.0342 N.pl3   1  UNL1       -0.2753
     15 C         138.7291  149.5470  155.9096 C.3     1  UNL1        0.1109
     16 C         138.4478  150.9380  155.4240 C.3     1  UNL1        0.0939
     17 C         138.6301  152.7564  153.5773 C.3     1  UNL1        0.0897
     18 C         139.1742  153.9366  154.3264 C.3     1  UNL1        0.0897
     19 C         138.1932  154.8364  156.5576 C.3     1  UNL1        0.0897
     20 N         138.2413  154.8553  155.0585 N.3     1  UNL1       -0.2691
     21 C         137.3566  155.7928  154.2914 C.3     1  UNL1        0.0897
     22 C         140.7849  141.3108  158.9256 C.ar    1  UNL1        0.0015
     23 C         139.7536  140.2346  158.7571 C.ar    1  UNL1        0.0000
     24 C         140.0348  138.8436  159.2427 C.ar    1  UNL1        0.0000
     25 C         141.3474  138.5287  159.8970 C.ar    1  UNL1        0.0000
     26 C         142.3787  139.6047  160.0655 C.ar    1  UNL1        0.0000
     27 C         142.0975  140.9958  159.5798 C.ar    1  UNL1        0.0000
     28 C         140.0318  143.4585  160.8802 C.ar    1  UNL1        0.0177
     29 C         138.8203  142.7562  161.4179 C.ar    1  UNL1        0.0012
     30 C         138.7250  142.4390  162.8809 C.ar    1  UNL1       -0.0029
     31 C         139.8412  142.8240  163.8061 C.ar    1  UNL1       -0.0061
     32 C         141.0526  143.5262  163.2683 C.ar    1  UNL1       -0.0029
     33 C         141.1479  143.8435  161.8053 C.ar    1  UNL1        0.0012
     34 C         139.7459  142.5068  165.2691 C.3     1  UNL1        0.0991
     35 N         140.6464  141.4695  165.8718 N.3     1  UNL1       -0.2689
     36 C         140.2735  140.8149  167.1688 C.3     1  UNL1        0.0728
     37 C         141.1739  139.7775  167.7716 C.3     1  UNL1        0.0249
     38 C         142.4473  139.3949  167.0772 C.3     1  UNL1        0.0613
     39 C         142.8201  140.0496  165.7800 C.3     1  UNL1        0.0249
     40 C         141.9197  141.0868  165.1774 C.3     1  UNL1        0.0728
     41 C         143.3477  138.3577  167.6798 C.ar    1  UNL1        0.1396
     42 N         144.1734  137.3598  166.9231 N.ar    1  UNL1       -0.1336
     43 N         144.9166  136.5215  167.9206 N.ar    1  UNL1       -0.1293
     44 C         144.5503  137.0014  169.2938 C.ar    1  UNL1        0.1633
     45 N         143.5807  138.1362  169.1449 N.ar    1  UNL1       -0.3246
     46 H         143.1694  138.6461  169.8799 H       1  UNL1        0.1686
     47 C         145.0634  136.4443  170.5885 C.ar    1  UNL1        0.0480
     48 C         146.4605  136.7551  171.0375 C.ar    1  UNL1        0.0802
     49 C         146.9737  136.1979  172.3322 C.ar    1  UNL1        0.3019
     50 N         146.0898  135.3300  173.1780 N.ar    1  UNL1       -0.1519
     51 O         146.6030  134.7729  174.4726 O.co2   1  UNL1       -0.6187
     52 C         144.6926  135.0192  172.7290 C.ar    1  UNL1        0.3019
     53 C         144.1796  135.5763  171.4343 C.ar    1  UNL1        0.0802
@<TRIPOS>UNITY_ATOM_ATTR
50 1
charge 1
51 1
charge -1
@<TRIPOS>BOND
     1    19    20    1
     2    20    21    1
     3    20    18    1
     4    18    17    1
     5    17    11    1
     6    11    12    1
     7    12    13    1
     8    13    14    1
     9    14     1    1
    10     1     2   ar
    11     2     3   ar
    12     3     4   ar
    13     4     5   ar
    14     5     6   ar
    15     6    22    1
    16    22    23   ar
    17    23    24   ar
    18    24    25   ar
    19    25    26   ar
    20    26    27   ar
    21     6     7   ar
    22     7    28    1
    23    28    29   ar
    24    29    30   ar
    25    30    31   ar
    26    31    34    1
    27    34    35    1
    28    35    36    1
    29    36    37    1
    30    37    38    1
    31    38    41    1
    32    41    42   ar
    33    42    43   ar
    34    43    44   ar
    35    44    47    1
    36    47    48   ar
    37    48    49   ar
    38    49    50   ar
    39    50    51    1
    40    50    52   ar
    41    52    53   ar
    42    44    45   ar
    43    38    39    1
    44    39    40    1
    45    31    32   ar
    46    32    33   ar
    47     7     8   ar
    48     8     9   ar
    49     9    10   ar
    50    14    15    1
    51    15    16    1
    52    16    11    1
    53    10     1   ar
    54     9     4   ar
    55    27    22   ar
    56    33    28   ar
    57    40    35    1
    58    45    41   ar
    59    53    47   ar
    60    45    46    1
