@<TRIPOS>MOLECULE
*****
 25 28 0 0 0
SMALL
GASTEIGER

@<TRIPOS>ATOM
      1 C         140.5191  140.6406  164.0832 C.3     1  UNL1        0.1343
      2 C         141.9802  140.9123  163.8799 C.ar    1  UNL1        0.0021
      3 C         142.9601  139.7767  163.8702 C.ar    1  UNL1        0.0008
      4 C         144.4212  140.0485  163.6669 C.ar    1  UNL1        0.0379
      5 C         144.9024  141.4559  163.4734 C.ar    1  UNL1        0.1511
      6 O         146.3635  141.7277  163.2701 O.3     1  UNL1       -0.5040
      7 C         143.9225  142.5917  163.4832 C.ar    1  UNL1        0.1146
      8 N         144.4038  143.9991  163.2897 N.ar    1  UNL1       -0.2408
      9 C         143.4239  145.1347  163.2994 C.ar    1  UNL1        0.0989
     10 C         141.9628  144.8630  163.5027 C.ar    1  UNL1        0.0207
     11 C         141.4816  143.4555  163.6962 C.ar    1  UNL1        0.0029
     12 C         142.4614  142.3199  163.6864 C.ar    1  UNL1        0.0185
     13 H         146.9756  141.0183  163.2640 H       1  UNL1        0.2923
     14 C         140.1571  142.0094  169.5268 C.ar    1  UNL1        0.2917
     15 C         140.8052  142.8080  168.4348 C.ar    1  UNL1        0.0769
     16 C         140.8100  142.2887  167.0276 C.ar    1  UNL1        0.0251
     17 C         140.1669  140.9708  166.7122 C.ar    1  UNL1        0.0796
     18 C         139.5188  140.1722  167.8041 C.ar    1  UNL1        0.1049
     19 C         139.5139  140.6914  169.2113 C.ar    1  UNL1        0.0958
     20 N         138.9681  138.9166  167.1956 N.ar    1  UNL1       -0.2237
     21 C         139.2758  138.9393  165.7277 C.ar    1  UNL1        0.1788
     22 N         140.0167  140.2088  165.4289 N.ar    1  UNL1       -0.3048
     23 O         139.0145  143.3793  171.4155 O.2     1  UNL1        0.0415
     24 N         140.1522  142.5286  170.9339 N.pl3   1  UNL1        0.0810
     25 O         141.2851  142.1973  171.8596 O.co2   1  UNL1       -0.5760
@<TRIPOS>UNITY_ATOM_ATTR
24 1
charge 1
25 1
charge -1
@<TRIPOS>BOND
     1    23    24    2
     2    24    25    1
     3    24    14    1
     4    14    15   ar
     5    15    16   ar
     6    16    17   ar
     7    17    18   ar
     8    18    19   ar
     9    18    20   ar
    10    20    21   ar
    11    21    22   ar
    12    22     1    1
    13     1     2    1
    14     2     3   ar
    15     3     4   ar
    16     4     5   ar
    17     5     6    1
    18     5     7   ar
    19     7     8   ar
    20     8     9   ar
    21     9    10   ar
    22    10    11   ar
    23    11    12   ar
    24    19    14   ar
    25    12     2   ar
    26    22    17   ar
    27    12     7   ar
    28     6    13    1
@<TRIPOS>MOLECULE
*****
 25 28 0 0 0
SMALL
GASTEIGER

@<TRIPOS>ATOM
      1 C         143.1654  141.4381  166.8149 C.3     1  UNL1        0.1343
      2 C         142.5442  141.6490  168.1638 C.ar    1  UNL1        0.0021
      3 C         143.2603  142.4634  169.2002 C.ar    1  UNL1        0.0008
      4 C         142.6391  142.6744  170.5491 C.ar    1  UNL1        0.0379
      5 C         141.3019  142.0710  170.8617 C.ar    1  UNL1        0.1511
      6 O         140.6807  142.2820  172.2107 O.3     1  UNL1       -0.5040
      7 C         140.5858  141.2566  169.8253 C.ar    1  UNL1        0.1146
      8 N         139.2486  140.6532  170.1379 N.ar    1  UNL1       -0.2408
      9 C         138.5325  139.8389  169.1016 C.ar    1  UNL1        0.0989
     10 C         139.1537  139.6279  167.7527 C.ar    1  UNL1        0.0207
     11 C         140.4909  140.2313  167.4401 C.ar    1  UNL1        0.0029
     12 C         141.2069  141.0456  168.4764 C.ar    1  UNL1        0.0185
     13 H         141.1280  142.7907  172.8580 H       1  UNL1        0.2923
     14 C         140.1896  144.7317  163.3604 C.ar    1  UNL1        0.2917
     15 C         139.6666  143.6260  164.2289 C.ar    1  UNL1        0.0769
     16 C         140.6085  142.8432  165.0948 C.ar    1  UNL1        0.0251
     17 C         142.0734  143.1659  165.0924 C.ar    1  UNL1        0.0796
     18 C         142.5963  144.2715  164.2239 C.ar    1  UNL1        0.1049
     19 C         141.6545  145.0544  163.3579 C.ar    1  UNL1        0.0958
     20 N         144.0795  144.3604  164.4297 N.ar    1  UNL1       -0.2237
     21 C         144.4732  143.3099  165.4254 C.ar    1  UNL1        0.1788
     22 N         143.2333  142.5716  165.8349 N.ar    1  UNL1       -0.3048
     23 O         137.8147  145.0893  162.3696 O.2     1  UNL1        0.0415
     24 N         139.2477  145.5145  162.4944 N.pl3   1  UNL1        0.0810
     25 O         139.7388  146.7226  161.7532 O.co2   1  UNL1       -0.5760
@<TRIPOS>UNITY_ATOM_ATTR
24 1
charge 1
25 1
charge -1
@<TRIPOS>BOND
     1    23    24    2
     2    24    25    1
     3    24    14    1
     4    14    15   ar
     5    15    16   ar
     6    16    17   ar
     7    17    18   ar
     8    18    19   ar
     9    18    20   ar
    10    20    21   ar
    11    21    22   ar
    12    22     1    1
    13     1     2    1
    14     2     3   ar
    15     3     4   ar
    16     4     5   ar
    17     5     6    1
    18     5     7   ar
    19     7     8   ar
    20     8     9   ar
    21     9    10   ar
    22    10    11   ar
    23    11    12   ar
    24    19    14   ar
    25    12     2   ar
    26    22    17   ar
    27    12     7   ar
    28     6    13    1
@<TRIPOS>MOLECULE
*****
 25 28 0 0 0
SMALL
GASTEIGER

@<TRIPOS>ATOM
      1 C         139.1921  138.4116  165.3993 C.3     1  UNL1        0.1343
      2 C         138.7715  138.7605  164.0023 C.ar    1  UNL1        0.0021
      3 C         138.7736  137.7081  162.9335 C.ar    1  UNL1        0.0008
      4 C         138.3530  138.0569  161.5366 C.ar    1  UNL1        0.0379
      5 C         137.9303  139.4582  161.2085 C.ar    1  UNL1        0.1511
      6 O         137.5097  139.8071  159.8116 O.3     1  UNL1       -0.5040
      7 C         137.9281  140.5107  162.2773 C.ar    1  UNL1        0.1146
      8 N         137.5054  141.9120  161.9492 N.ar    1  UNL1       -0.2408
      9 C         137.5032  142.9644  163.0180 C.ar    1  UNL1        0.0989
     10 C         137.9238  142.6155  164.4150 C.ar    1  UNL1        0.0207
     11 C         138.3466  141.2142  164.7431 C.ar    1  UNL1        0.0029
     12 C         138.3487  140.1618  163.6743 C.ar    1  UNL1        0.0185
     13 H         137.5110  139.1496  159.1439 H       1  UNL1        0.2923
     14 C         141.1267  141.4299  169.7334 C.ar    1  UNL1        0.2917
     15 C         139.7191  140.9588  169.5164 C.ar    1  UNL1        0.0769
     16 C         139.3761  140.1578  168.2954 C.ar    1  UNL1        0.0251
     17 C         140.4407  139.8279  167.2914 C.ar    1  UNL1        0.0796
     18 C         141.8481  140.2990  167.5084 C.ar    1  UNL1        0.1049
     19 C         142.1912  141.0999  168.7293 C.ar    1  UNL1        0.0958
     20 N         142.6792  139.8236  166.3537 N.ar    1  UNL1       -0.2237
     21 C         141.7854  139.0587  165.4231 C.ar    1  UNL1        0.1788
     22 N         140.4019  139.0614  166.0026 N.ar    1  UNL1       -0.3048
     23 O         140.6228  142.1185  172.1873 O.2     1  UNL1        0.0415
     24 N         141.4696  142.2308  170.9543 N.pl3   1  UNL1        0.0810
     25 O         142.6595  143.1442  170.9424 O.co2   1  UNL1       -0.5760
@<TRIPOS>UNITY_ATOM_ATTR
24 1
charge 1
25 1
charge -1
@<TRIPOS>BOND
     1    23    24    2
     2    24    25    1
     3    24    14    1
     4    14    15   ar
     5    15    16   ar
     6    16    17   ar
     7    17    18   ar
     8    18    19   ar
     9    18    20   ar
    10    20    21   ar
    11    21    22   ar
    12    22     1    1
    13     1     2    1
    14     2     3   ar
    15     3     4   ar
    16     4     5   ar
    17     5     6    1
    18     5     7   ar
    19     7     8   ar
    20     8     9   ar
    21     9    10   ar
    22    10    11   ar
    23    11    12   ar
    24    19    14   ar
    25    12     2   ar
    26    22    17   ar
    27    12     7   ar
    28     6    13    1
@<TRIPOS>MOLECULE
*****
 25 28 0 0 0
SMALL
GASTEIGER

@<TRIPOS>ATOM
      1 C         139.5212  140.3228  164.2993 C.3     1  UNL1        0.1343
      2 C         139.3214  141.6984  163.7356 C.ar    1  UNL1        0.0021
      3 C         137.9416  142.2801  163.6484 C.ar    1  UNL1        0.0008
      4 C         137.7418  143.6557  163.0847 C.ar    1  UNL1        0.0379
      5 C         138.9218  144.4496  162.6082 C.ar    1  UNL1        0.1511
      6 O         138.7220  145.8253  162.0445 O.3     1  UNL1       -0.5040
      7 C         140.3017  143.8680  162.6954 C.ar    1  UNL1        0.1146
      8 N         141.4818  144.6620  162.2189 N.ar    1  UNL1       -0.2408
      9 C         142.8616  144.0803  162.3061 C.ar    1  UNL1        0.0989
     10 C         143.0614  142.7047  162.8698 C.ar    1  UNL1        0.0207
     11 C         141.8814  141.9107  163.3463 C.ar    1  UNL1        0.0029
     12 C         140.5016  142.4924  163.2591 C.ar    1  UNL1        0.0185
     13 H         137.8600  146.1886  161.9900 H       1  UNL1        0.2923
     14 C         140.8146  141.8645  169.5517 C.ar    1  UNL1        0.2917
     15 C         141.3556  142.4465  168.2794 C.ar    1  UNL1        0.0769
     16 C         140.8979  141.9106  166.9553 C.ar    1  UNL1        0.0251
     17 C         139.8991  140.7927  166.9034 C.ar    1  UNL1        0.0796
     18 C         139.3581  140.2107  168.1756 C.ar    1  UNL1        0.1049
     19 C         139.8157  140.7466  169.4997 C.ar    1  UNL1        0.0958
     20 N         138.3911  139.1227  167.8132 N.ar    1  UNL1       -0.2237
     21 C         138.3345  139.0323  166.3170 C.ar    1  UNL1        0.1788
     22 N         139.2665  140.0644  165.7547 N.ar    1  UNL1       -0.3048
     23 O         142.5149  143.2366  170.9573 O.2     1  UNL1        0.0415
     24 N         141.2723  142.4004  170.8757 N.pl3   1  UNL1        0.0810
     25 O         140.4874  142.1002  172.1183 O.co2   1  UNL1       -0.5760
@<TRIPOS>UNITY_ATOM_ATTR
24 1
charge 1
25 1
charge -1
@<TRIPOS>BOND
     1    23    24    2
     2    24    25    1
     3    24    14    1
     4    14    15   ar
     5    15    16   ar
     6    16    17   ar
     7    17    18   ar
     8    18    19   ar
     9    18    20   ar
    10    20    21   ar
    11    21    22   ar
    12    22     1    1
    13     1     2    1
    14     2     3   ar
    15     3     4   ar
    16     4     5   ar
    17     5     6    1
    18     5     7   ar
    19     7     8   ar
    20     8     9   ar
    21     9    10   ar
    22    10    11   ar
    23    11    12   ar
    24    19    14   ar
    25    12     2   ar
    26    22    17   ar
    27    12     7   ar
    28     6    13    1
@<TRIPOS>MOLECULE
*****
 25 28 0 0 0
SMALL
GASTEIGER

@<TRIPOS>ATOM
      1 C         139.9459  140.5090  164.1196 C.3     1  UNL1        0.1343
      2 C         141.1207  139.8491  163.4605 C.ar    1  UNL1        0.0021
      3 C         140.9456  138.5367  162.7556 C.ar    1  UNL1        0.0008
      4 C         142.1204  137.8768  162.0965 C.ar    1  UNL1        0.0379
      5 C         143.4702  138.5294  162.1422 C.ar    1  UNL1        0.1511
      6 O         144.6450  137.8695  161.4831 O.3     1  UNL1       -0.5040
      7 C         143.6453  139.8419  162.8471 C.ar    1  UNL1        0.1146
      8 N         144.9951  140.4944  162.8928 N.ar    1  UNL1       -0.2408
      9 C         145.1702  141.8068  163.5977 C.ar    1  UNL1        0.0989
     10 C         143.9954  142.4667  164.2568 C.ar    1  UNL1        0.0207
     11 C         142.6456  141.8142  164.2111 C.ar    1  UNL1        0.0029
     12 C         142.4705  140.5017  163.5062 C.ar    1  UNL1        0.0185
     13 H         144.5357  137.0496  161.0428 H       1  UNL1        0.2923
     14 C         140.0401  141.9733  169.5495 C.ar    1  UNL1        0.2917
     15 C         140.6153  142.7407  168.3960 C.ar    1  UNL1        0.0769
     16 C         140.4993  142.1986  167.0022 C.ar    1  UNL1        0.0251
     17 C         139.8083  140.8891  166.7619 C.ar    1  UNL1        0.0796
     18 C         139.2332  140.1218  167.9153 C.ar    1  UNL1        0.1049
     19 C         139.3491  140.6638  169.3091 C.ar    1  UNL1        0.0958
     20 N         138.6124  138.8679  167.3744 N.ar    1  UNL1       -0.2237
     21 C         138.8038  138.8604  165.8867 C.ar    1  UNL1        0.1788
     22 N         139.5429  140.1096  165.5081 N.ar    1  UNL1       -0.3048
     23 O         139.0817  143.4059  171.4934 O.2     1  UNL1        0.0415
     24 N         140.1561  142.5154  170.9432 N.pl3   1  UNL1        0.0810
     25 O         141.3464  142.1670  171.7870 O.co2   1  UNL1       -0.5760
@<TRIPOS>UNITY_ATOM_ATTR
24 1
charge 1
25 1
charge -1
@<TRIPOS>BOND
     1    23    24    2
     2    24    25    1
     3    24    14    1
     4    14    15   ar
     5    15    16   ar
     6    16    17   ar
     7    17    18   ar
     8    18    19   ar
     9    18    20   ar
    10    20    21   ar
    11    21    22   ar
    12    22     1    1
    13     1     2    1
    14     2     3   ar
    15     3     4   ar
    16     4     5   ar
    17     5     6    1
    18     5     7   ar
    19     7     8   ar
    20     8     9   ar
    21     9    10   ar
    22    10    11   ar
    23    11    12   ar
    24    19    14   ar
    25    12     2   ar
    26    22    17   ar
    27    12     7   ar
    28     6    13    1
@<TRIPOS>MOLECULE
*****
 25 28 0 0 0
SMALL
GASTEIGER

@<TRIPOS>ATOM
      1 C         141.8076  140.3326  163.9992 C.3     1  UNL1        0.1343
      2 C         141.6647  141.8102  163.7842 C.ar    1  UNL1        0.0021
      3 C         142.8792  142.6904  163.7936 C.ar    1  UNL1        0.0008
      4 C         142.7362  144.1681  163.5786 C.ar    1  UNL1        0.0379
      5 C         141.3788  144.7655  163.3543 C.ar    1  UNL1        0.1511
      6 O         141.2359  146.2431  163.1394 O.3     1  UNL1       -0.5040
      7 C         140.1642  143.8853  163.3450 C.ar    1  UNL1        0.1146
      8 N         138.8067  144.4827  163.1207 N.ar    1  UNL1       -0.2408
      9 C         137.5922  143.6025  163.1114 C.ar    1  UNL1        0.0989
     10 C         137.7351  142.1249  163.3263 C.ar    1  UNL1        0.0207
     11 C         139.0926  141.5274  163.5506 C.ar    1  UNL1        0.0029
     12 C         140.3071  142.4076  163.5599 C.ar    1  UNL1        0.0185
     13 H         141.9945  146.7929  163.1452 H       1  UNL1        0.2923
     14 C         140.6697  140.1405  169.5042 C.ar    1  UNL1        0.2917
     15 C         139.8781  140.8432  168.4413 C.ar    1  UNL1        0.0769
     16 C         140.3295  140.7905  167.0118 C.ar    1  UNL1        0.0251
     17 C         141.5724  140.0351  166.6452 C.ar    1  UNL1        0.0796
     18 C         142.3640  139.3324  167.7080 C.ar    1  UNL1        0.1049
     19 C         141.9127  139.3850  169.1375 C.ar    1  UNL1        0.0958
     20 N         143.5389  138.6715  167.0501 N.ar    1  UNL1       -0.2237
     21 C         143.4735  138.9658  165.5807 C.ar    1  UNL1        0.1788
     22 N         142.2581  139.8085  165.3304 N.ar    1  UNL1       -0.3048
     23 O         139.2444  139.1763  171.4506 O.2     1  UNL1        0.0415
     24 N         140.2184  140.1932  170.9337 N.pl3   1  UNL1        0.0810
     25 O         140.7411  141.2628  171.8463 O.co2   1  UNL1       -0.5760
@<TRIPOS>UNITY_ATOM_ATTR
24 1
charge 1
25 1
charge -1
@<TRIPOS>BOND
     1    23    24    2
     2    24    25    1
     3    24    14    1
     4    14    15   ar
     5    15    16   ar
     6    16    17   ar
     7    17    18   ar
     8    18    19   ar
     9    18    20   ar
    10    20    21   ar
    11    21    22   ar
    12    22     1    1
    13     1     2    1
    14     2     3   ar
    15     3     4   ar
    16     4     5   ar
    17     5     6    1
    18     5     7   ar
    19     7     8   ar
    20     8     9   ar
    21     9    10   ar
    22    10    11   ar
    23    11    12   ar
    24    19    14   ar
    25    12     2   ar
    26    22    17   ar
    27    12     7   ar
    28     6    13    1
@<TRIPOS>MOLECULE
*****
 25 28 0 0 0
SMALL
GASTEIGER

@<TRIPOS>ATOM
      1 C         140.7326  139.7733  164.2097 C.3     1  UNL1        0.1343
      2 C         141.3044  141.0878  163.7679 C.ar    1  UNL1        0.0021
      3 C         140.3895  142.2084  163.3715 C.ar    1  UNL1        0.0008
      4 C         140.9613  143.5228  162.9297 C.ar    1  UNL1        0.0379
      5 C         142.4480  143.7167  162.8843 C.ar    1  UNL1        0.1511
      6 O         143.0198  145.0312  162.4424 O.3     1  UNL1       -0.5040
      7 C         143.3630  142.5961  163.2807 C.ar    1  UNL1        0.1146
      8 N         144.8497  142.7899  163.2352 N.ar    1  UNL1       -0.2408
      9 C         145.7646  141.6693  163.6316 C.ar    1  UNL1        0.0989
     10 C         145.1928  140.3549  164.0734 C.ar    1  UNL1        0.0207
     11 C         143.7061  140.1610  164.1189 C.ar    1  UNL1        0.0029
     12 C         142.7912  141.2816  163.7225 C.ar    1  UNL1        0.0185
     13 H         142.4483  145.7312  162.1948 H       1  UNL1        0.2923
     14 C         140.2314  141.9890  169.3553 C.ar    1  UNL1        0.2917
     15 C         141.1359  142.4566  168.2537 C.ar    1  UNL1        0.0769
     16 C         141.1415  141.7432  166.9342 C.ar    1  UNL1        0.0251
     17 C         140.2427  140.5623  166.7162 C.ar    1  UNL1        0.0796
     18 C         139.3383  140.0948  167.8178 C.ar    1  UNL1        0.1049
     19 C         139.3326  140.8081  169.1372 C.ar    1  UNL1        0.0958
     20 N         138.5683  138.9101  167.3139 N.ar    1  UNL1       -0.2237
     21 C         138.9970  138.6455  165.9010 C.ar    1  UNL1        0.1788
     22 N         140.0318  139.6666  165.5316 N.ar    1  UNL1       -0.3048
     23 O         139.7068  144.1068  170.7658 O.2     1  UNL1        0.0415
     24 N         140.2258  142.7024  170.6747 N.pl3   1  UNL1        0.0810
     25 O         140.7391  142.0114  171.9032 O.co2   1  UNL1       -0.5760
@<TRIPOS>UNITY_ATOM_ATTR
24 1
charge 1
25 1
charge -1
@<TRIPOS>BOND
     1    23    24    2
     2    24    25    1
     3    24    14    1
     4    14    15   ar
     5    15    16   ar
     6    16    17   ar
     7    17    18   ar
     8    18    19   ar
     9    18    20   ar
    10    20    21   ar
    11    21    22   ar
    12    22     1    1
    13     1     2    1
    14     2     3   ar
    15     3     4   ar
    16     4     5   ar
    17     5     6    1
    18     5     7   ar
    19     7     8   ar
    20     8     9   ar
    21     9    10   ar
    22    10    11   ar
    23    11    12   ar
    24    19    14   ar
    25    12     2   ar
    26    22    17   ar
    27    12     7   ar
    28     6    13    1
@<TRIPOS>MOLECULE
*****
 25 28 0 0 0
SMALL
GASTEIGER

@<TRIPOS>ATOM
      1 C         142.4670  142.0656  164.1470 C.3     1  UNL1        0.1343
      2 C         141.1639  142.7238  163.8022 C.ar    1  UNL1        0.0021
      3 C         140.9844  144.1958  164.0277 C.ar    1  UNL1        0.0008
      4 C         139.6813  144.8539  163.6829 C.ar    1  UNL1        0.0379
      5 C         138.5578  144.0400  163.1126 C.ar    1  UNL1        0.1511
      6 O         137.2548  144.6981  162.7678 O.3     1  UNL1       -0.5040
      7 C         138.7373  142.5679  162.8871 C.ar    1  UNL1        0.1146
      8 N         137.6138  141.7540  162.3168 N.ar    1  UNL1       -0.2408
      9 C         137.7934  140.2820  162.0913 C.ar    1  UNL1        0.0989
     10 C         139.0965  139.6239  162.4361 C.ar    1  UNL1        0.0207
     11 C         140.2200  140.4378  163.0064 C.ar    1  UNL1        0.0029
     12 C         140.0404  141.9098  163.2319 C.ar    1  UNL1        0.0185
     13 H         137.1426  145.6177  162.9086 H       1  UNL1        0.2923
     14 C         140.8573  140.9851  169.4270 C.ar    1  UNL1        0.2917
     15 C         140.5324  142.2032  168.6141 C.ar    1  UNL1        0.0769
     16 C         141.0484  142.3282  167.2112 C.ar    1  UNL1        0.0251
     17 C         141.8892  141.2351  166.6211 C.ar    1  UNL1        0.0796
     18 C         142.2140  140.0170  167.4340 C.ar    1  UNL1        0.1049
     19 C         141.6981  139.8920  168.8369 C.ar    1  UNL1        0.0958
     20 N         143.0595  139.1090  166.5908 N.ar    1  UNL1       -0.2237
     21 C         143.2571  139.7660  165.2569 C.ar    1  UNL1        0.1788
     22 N         142.5339  141.0799  165.2756 N.ar    1  UNL1       -0.3048
     23 O         139.4995  139.6805  171.2170 O.2     1  UNL1        0.0415
     24 N         140.3413  140.8601  170.8298 N.pl3   1  UNL1        0.0810
     25 O         140.6671  141.9147  171.8456 O.co2   1  UNL1       -0.5760
@<TRIPOS>UNITY_ATOM_ATTR
24 1
charge 1
25 1
charge -1
@<TRIPOS>BOND
     1    23    24    2
     2    24    25    1
     3    24    14    1
     4    14    15   ar
     5    15    16   ar
     6    16    17   ar
     7    17    18   ar
     8    18    19   ar
     9    18    20   ar
    10    20    21   ar
    11    21    22   ar
    12    22     1    1
    13     1     2    1
    14     2     3   ar
    15     3     4   ar
    16     4     5   ar
    17     5     6    1
    18     5     7   ar
    19     7     8   ar
    20     8     9   ar
    21     9    10   ar
    22    10    11   ar
    23    11    12   ar
    24    19    14   ar
    25    12     2   ar
    26    22    17   ar
    27    12     7   ar
    28     6    13    1
@<TRIPOS>MOLECULE
*****
 25 28 0 0 0
SMALL
GASTEIGER

@<TRIPOS>ATOM
      1 C         141.1517  139.2077  164.2763 C.3     1  UNL1        0.1343
      2 C         142.4849  139.8570  164.0502 C.ar    1  UNL1        0.0021
      3 C         143.7430  139.1471  164.4542 C.ar    1  UNL1        0.0008
      4 C         145.0762  139.7963  164.2282 C.ar    1  UNL1        0.0379
      5 C         145.1513  141.1555  163.5982 C.ar    1  UNL1        0.1511
      6 O         146.4845  141.8047  163.3721 O.3     1  UNL1       -0.5040
      7 C         143.8932  141.8655  163.1941 C.ar    1  UNL1        0.1146
      8 N         143.9683  143.2247  162.5641 N.ar    1  UNL1       -0.2408
      9 C         142.7102  143.9346  162.1602 C.ar    1  UNL1        0.0989
     10 C         141.3771  143.2853  162.3862 C.ar    1  UNL1        0.0207
     11 C         141.3019  141.9262  163.0162 C.ar    1  UNL1        0.0029
     12 C         142.5600  141.2162  163.4202 C.ar    1  UNL1        0.0185
     13 H         147.2704  141.3613  163.6245 H       1  UNL1        0.2923
     14 C         141.3420  141.6817  169.3241 C.ar    1  UNL1        0.2917
     15 C         142.4013  141.7109  168.2624 C.ar    1  UNL1        0.0769
     16 C         142.1829  140.9904  166.9650 C.ar    1  UNL1        0.0251
     17 C         140.9053  140.2406  166.7294 C.ar    1  UNL1        0.0796
     18 C         139.8461  140.2113  167.7910 C.ar    1  UNL1        0.1049
     19 C         140.0644  140.9318  169.0884 C.ar    1  UNL1        0.0958
     20 N         138.6974  139.3949  167.2773 N.ar    1  UNL1       -0.2237
     21 C         139.0467  138.9196  165.8981 C.ar    1  UNL1        0.1788
     22 N         140.4113  139.4422  165.5595 N.ar    1  UNL1       -0.3048
     23 O         140.8865  141.9179  171.8709 O.2     1  UNL1        0.0415
     24 N         141.5603  142.4022  170.6214 N.pl3   1  UNL1        0.0810
     25 O         142.4526  143.6071  170.6693 O.co2   1  UNL1       -0.5760
@<TRIPOS>UNITY_ATOM_ATTR
24 1
charge 1
25 1
charge -1
@<TRIPOS>BOND
     1    23    24    2
     2    24    25    1
     3    24    14    1
     4    14    15   ar
     5    15    16   ar
     6    16    17   ar
     7    17    18   ar
     8    18    19   ar
     9    18    20   ar
    10    20    21   ar
    11    21    22   ar
    12    22     1    1
    13     1     2    1
    14     2     3   ar
    15     3     4   ar
    16     4     5   ar
    17     5     6    1
    18     5     7   ar
    19     7     8   ar
    20     8     9   ar
    21     9    10   ar
    22    10    11   ar
    23    11    12   ar
    24    19    14   ar
    25    12     2   ar
    26    22    17   ar
    27    12     7   ar
    28     6    13    1
