@<TRIPOS>MOLECULE
*****
 13 14 0 0 0
SMALL
GASTEIGER

@<TRIPOS>ATOM
      1 C         140.4875  142.5111  169.1213 C.2     1  UNL1        0.0636
      2 C         139.9149  141.2700  169.7392 C.2     1  UNL1       -0.0213
      3 C         139.4503  140.1429  168.8653 C.3     1  UNL1        0.0419
      4 C         139.6266  140.4128  167.3904 C.3     1  UNL1        0.0622
      5 C         139.9143  140.9437  166.0173 C.3     1  UNL1        0.0180
      6 C         140.5132  142.3110  166.1651 C.3     1  UNL1        0.0221
      7 C         140.5955  142.6251  167.6296 C.3     1  UNL1        0.0862
      8 N         140.0476  141.4519  168.3868 N.3     1  UNL1       -0.2699
      9 C         139.9149  141.2173  169.1370 C.3     1  UNL1        0.0898
     10 C         140.9521  143.6382  169.9952 C.2     1  UNL1        0.3382
     11 O         140.0423  144.7989  170.2692 O.2     1  UNL1       -0.2452
     12 C         143.3458  142.6316  170.0809 C.3     1  UNL1        0.2559
     13 O         142.3266  143.6047  170.5951 O.3     1  UNL1       -0.4415
@<TRIPOS>BOND
     1    12    13    1
     2    13    10    1
     3    10    11    2
     4    10     1    1
     5     1     2    2
     6     2     3    1
     7     3     4    1
     8     4     5    1
     9     5     6    1
    10     6     7    1
    11     7     8    1
    12     8     9    1
    13     7     1    1
    14     8     4    1
@<TRIPOS>MOLECULE
*****
 13 14 0 0 0
SMALL
GASTEIGER

@<TRIPOS>ATOM
      1 C         138.3094  138.7855  165.7783 C.2     1  UNL1        0.0636
      2 C         138.9697  137.6290  165.0879 C.2     1  UNL1       -0.0213
      3 C         139.3730  137.7462  163.6479 C.3     1  UNL1        0.0419
      4 C         139.0460  139.0882  163.0386 C.3     1  UNL1        0.0622
      5 C         138.6118  140.4849  162.7057 C.3     1  UNL1        0.0180
      6 C         137.9977  141.0849  163.9357 C.3     1  UNL1        0.0221
      7 C         138.0524  140.0591  165.0287 C.3     1  UNL1        0.0862
      8 N         138.7003  138.8250  164.4743 N.3     1  UNL1       -0.2699
      9 C         138.9117  138.0911  164.7027 C.3     1  UNL1        0.0898
     10 C         137.9061  138.6683  167.2183 C.2     1  UNL1        0.3382
     11 O         136.7575  137.7848  167.6060 O.2     1  UNL1       -0.2452
     12 C         140.0058  140.0031  167.9666 C.3     1  UNL1        0.2559
     13 O         138.6514  139.4347  168.2707 O.3     1  UNL1       -0.4415
@<TRIPOS>BOND
     1    12    13    1
     2    13    10    1
     3    10    11    2
     4    10     1    1
     5     1     2    2
     6     2     3    1
     7     3     4    1
     8     4     5    1
     9     5     6    1
    10     6     7    1
    11     7     8    1
    12     8     9    1
    13     7     1    1
    14     8     4    1
@<TRIPOS>MOLECULE
*****
 13 14 0 0 0
SMALL
GASTEIGER

@<TRIPOS>ATOM
      1 C         140.1480  140.2832  169.1189 C.2     1  UNL1        0.0636
      2 C         141.4782  139.8187  169.6337 C.2     1  UNL1       -0.0213
      3 C         142.5524  139.4063  168.6715 C.3     1  UNL1        0.0419
      4 C         142.1381  139.5161  167.2238 C.3     1  UNL1        0.0622
      5 C         141.4658  139.7221  165.8988 C.3     1  UNL1        0.0180
      6 C         140.0777  140.2283  166.1572 C.3     1  UNL1        0.0221
      7 C         139.8921  140.3352  167.6419 C.3     1  UNL1        0.0862
      8 N         141.1655  139.8951  168.3011 N.3     1  UNL1       -0.2699
      9 C         141.4760  139.8031  169.0295 C.3     1  UNL1        0.0898
     10 C         139.0738  140.6955  170.0812 C.2     1  UNL1        0.3382
     11 O         137.9668  139.7427  170.4229 O.2     1  UNL1       -0.2452
     12 C         140.0669  143.0939  170.1913 C.3     1  UNL1        0.2559
     13 O         139.1065  142.0608  170.7018 O.3     1  UNL1       -0.4415
@<TRIPOS>BOND
     1    12    13    1
     2    13    10    1
     3    10    11    2
     4    10     1    1
     5     1     2    2
     6     2     3    1
     7     3     4    1
     8     4     5    1
     9     5     6    1
    10     6     7    1
    11     7     8    1
    12     8     9    1
    13     7     1    1
    14     8     4    1
@<TRIPOS>MOLECULE
*****
 13 14 0 0 0
SMALL
GASTEIGER

@<TRIPOS>ATOM
      1 C         139.9625  140.0753  168.7489 C.2     1  UNL1        0.0636
      2 C         139.0129  139.8395  167.6119 C.2     1  UNL1       -0.0213
      3 C         139.5428  139.4997  166.2504 C.3     1  UNL1        0.0419
      4 C         141.0499  139.4334  166.1904 C.3     1  UNL1        0.0622
      5 C         142.5318  139.4371  166.4226 C.3     1  UNL1        0.0180
      6 C         142.7741  139.7694  167.8651 C.3     1  UNL1        0.0221
      7 C         141.4419  139.9711  168.5244 C.3     1  UNL1        0.0862
      8 N         140.3763  139.7635  167.4894 N.3     1  UNL1       -0.2699
      9 C         139.5823  139.7745  167.4197 C.3     1  UNL1        0.0898
     10 C         139.4326  140.4151  170.1104 C.2     1  UNL1        0.3382
     11 O         139.3136  139.3471  171.1570 O.2     1  UNL1       -0.2452
     12 C         140.0419  142.9227  170.4125 C.3     1  UNL1        0.2559
     13 O         139.0218  141.8230  170.4254 O.3     1  UNL1       -0.4415
@<TRIPOS>BOND
     1    12    13    1
     2    13    10    1
     3    10    11    2
     4    10     1    1
     5     1     2    2
     6     2     3    1
     7     3     4    1
     8     4     5    1
     9     5     6    1
    10     6     7    1
    11     7     8    1
    12     8     9    1
    13     7     1    1
    14     8     4    1
@<TRIPOS>MOLECULE
*****
 13 14 0 0 0
SMALL
GASTEIGER

@<TRIPOS>ATOM
      1 C         139.6439  140.4836  168.2391 C.2     1  UNL1        0.0636
      2 C         140.3908  141.5363  167.4748 C.2     1  UNL1       -0.0213
      3 C         140.2621  141.6125  165.9822 C.3     1  UNL1        0.0419
      4 C         139.3459  140.5618  165.4027 C.3     1  UNL1        0.0622
      5 C         138.4030  139.4318  165.1128 C.3     1  UNL1        0.0180
      6 C         138.0461  138.7801  166.4158 C.3     1  UNL1        0.0221
      7 C         138.7684  139.5072  167.5110 C.3     1  UNL1        0.0862
      8 N         139.5718  140.6084  166.8849 N.3     1  UNL1       -0.2699
      9 C         140.0691  141.1957  167.0928 C.3     1  UNL1        0.0898
     10 C         139.7726  140.4074  169.7317 C.2     1  UNL1        0.3382
     11 O         138.9957  141.3516  170.6006 O.2     1  UNL1       -0.2452
     12 C         142.1150  139.3016  169.9331 C.3     1  UNL1        0.2559
     13 O         140.6782  139.3870  170.3553 O.3     1  UNL1       -0.4415
@<TRIPOS>BOND
     1    12    13    1
     2    13    10    1
     3    10    11    2
     4    10     1    1
     5     1     2    2
     6     2     3    1
     7     3     4    1
     8     4     5    1
     9     5     6    1
    10     6     7    1
    11     7     8    1
    12     8     9    1
    13     7     1    1
    14     8     4    1
@<TRIPOS>MOLECULE
*****
 13 14 0 0 0
SMALL
GASTEIGER

@<TRIPOS>ATOM
      1 C         138.4695  139.4217  165.5488 C.2     1  UNL1        0.0636
      2 C         138.0471  140.7485  164.9908 C.2     1  UNL1       -0.0213
      3 C         137.9379  140.9376  163.5069 C.3     1  UNL1        0.0419
      4 C         138.2859  139.7001  162.7152 C.3     1  UNL1        0.0622
      5 C         138.6785  138.3477  162.1986 C.3     1  UNL1        0.0180
      6 C         138.9855  137.4725  163.3775 C.3     1  UNL1        0.0221
      7 C         138.7826  138.2840  164.6227 C.3     1  UNL1        0.0862
      8 N         138.3502  139.6608  164.2133 N.3     1  UNL1       -0.2699
      9 C         138.1493  140.3600  164.5393 C.3     1  UNL1        0.0898
     10 C         138.5788  139.2326  167.0327 C.2     1  UNL1        0.3382
     11 O         137.5151  138.4770  167.7729 O.2     1  UNL1       -0.2452
     12 C         139.5648  140.3637  169.1537 C.3     1  UNL1        0.2559
     13 O         139.7518  139.7990  167.7767 O.3     1  UNL1       -0.4415
@<TRIPOS>BOND
     1    12    13    1
     2    13    10    1
     3    10    11    2
     4    10     1    1
     5     1     2    2
     6     2     3    1
     7     3     4    1
     8     4     5    1
     9     5     6    1
    10     6     7    1
    11     7     8    1
    12     8     9    1
    13     7     1    1
    14     8     4    1
@<TRIPOS>MOLECULE
*****
 13 14 0 0 0
SMALL
GASTEIGER

@<TRIPOS>ATOM
      1 C         139.6260  140.4879  168.1759 C.2     1  UNL1        0.0636
      2 C         138.9727  139.4470  167.3158 C.2     1  UNL1       -0.0213
      3 C         138.9838  139.5926  165.8230 C.3     1  UNL1        0.0419
      4 C         139.6907  140.8382  165.3451 C.3     1  UNL1        0.0622
      5 C         140.4372  142.1264  165.1630 C.3     1  UNL1        0.0180
      6 C         140.8080  142.6432  166.5215 C.3     1  UNL1        0.0221
      7 C         140.2905  141.6744  167.5431 C.3     1  UNL1        0.0862
      8 N         139.6000  140.5588  166.8161 N.3     1  UNL1       -0.2699
      9 C         139.2096  139.8805  166.9677 C.3     1  UNL1        0.0898
     10 C         139.6148  140.3422  169.6688 C.2     1  UNL1        0.3382
     11 O         138.6381  141.1288  170.4918 O.2     1  UNL1       -0.2452
     12 C         142.0180  139.3852  169.9115 C.3     1  UNL1        0.2559
     13 O         140.5803  139.4099  170.3387 O.3     1  UNL1       -0.4415
@<TRIPOS>BOND
     1    12    13    1
     2    13    10    1
     3    10    11    2
     4    10     1    1
     5     1     2    2
     6     2     3    1
     7     3     4    1
     8     4     5    1
     9     5     6    1
    10     6     7    1
    11     7     8    1
    12     8     9    1
    13     7     1    1
    14     8     4    1
@<TRIPOS>MOLECULE
*****
 13 14 0 0 0
SMALL
GASTEIGER

@<TRIPOS>ATOM
      1 C         142.5823  140.0680  168.3408 C.2     1  UNL1        0.0636
      2 C         142.4992  141.5116  167.9418 C.2     1  UNL1       -0.0213
      3 C         142.7892  141.9165  166.5269 C.3     1  UNL1        0.0419
      4 C         143.1488  140.7561  165.6305 C.3     1  UNL1        0.0622
      5 C         143.4668  139.4385  164.9880 C.3     1  UNL1        0.0180
      6 C         143.3473  138.3713  166.0352 C.3     1  UNL1        0.0221
      7 C         142.9555  139.0293  167.3250 C.3     1  UNL1        0.0862
      8 N         142.8328  140.5032  167.0749 N.3     1  UNL1       -0.2699
      9 C         142.6557  141.1761  167.4640 C.3     1  UNL1        0.0898
     10 C         142.2922  139.6631  169.7557 C.2     1  UNL1        0.3382
     11 O         143.4037  139.6012  170.7610 O.2     1  UNL1       -0.2452
     12 C         139.8329  140.3837  170.1835 C.3     1  UNL1        0.2559
     13 O         140.8905  139.3200  170.1653 O.3     1  UNL1       -0.4415
@<TRIPOS>BOND
     1    12    13    1
     2    13    10    1
     3    10    11    2
     4    10     1    1
     5     1     2    2
     6     2     3    1
     7     3     4    1
     8     4     5    1
     9     5     6    1
    10     6     7    1
    11     7     8    1
    12     8     9    1
    13     7     1    1
    14     8     4    1
@<TRIPOS>MOLECULE
*****
 13 14 0 0 0
SMALL
GASTEIGER

@<TRIPOS>ATOM
      1 C         141.1738  145.0012  162.5620 C.2     1  UNL1        0.0636
      2 C         141.9541  145.4762  163.7517 C.2     1  UNL1       -0.0213
      3 C         143.3863  145.0643  163.9224 C.3     1  UNL1        0.0419
      4 C         143.8925  144.1732  162.8138 C.3     1  UNL1        0.0622
      5 C         144.1178  143.3184  161.6019 C.3     1  UNL1        0.0180
      6 C         142.8404  143.2820  160.8165 C.3     1  UNL1        0.0221
      7 C         141.8256  144.1142  161.5429 C.3     1  UNL1        0.0862
      8 N         142.4759  144.6651  162.7773 N.3     1  UNL1       -0.2699
      9 C         142.3040  145.1271  163.4038 C.3     1  UNL1        0.0898
     10 C         139.7416  145.4130  162.3913 C.2     1  UNL1        0.3382
     11 O         139.3777  146.4603  161.3808 O.2     1  UNL1       -0.2452
     12 C         137.8971  143.6093  162.6993 C.3     1  UNL1        0.2559
     13 O         138.6732  144.7777  163.2310 O.3     1  UNL1       -0.4415
@<TRIPOS>BOND
     1    12    13    1
     2    13    10    1
     3    10    11    2
     4    10     1    1
     5     1     2    2
     6     2     3    1
     7     3     4    1
     8     4     5    1
     9     5     6    1
    10     6     7    1
    11     7     8    1
    12     8     9    1
    13     7     1    1
    14     8     4    1
