@<TRIPOS>MOLECULE
*****
 32 35 0 0 0
SMALL
GASTEIGER

@<TRIPOS>ATOM
      1 N         141.4731  145.3475  160.2231 N.am    1  UNL1       -0.2677
      2 C         140.7113  145.3115  161.5147 C.2     1  UNL1        0.2316
      3 O         139.2320  145.0633  161.5062 O.2     1  UNL1       -0.2744
      4 H         142.4441  145.5104  160.2287 H       1  UNL1        0.1563
      5 N         139.7555  145.5306  156.7472 N.ar    1  UNL1       -0.2421
      6 C         139.5481  144.0869  157.0974 C.ar    1  UNL1        0.0985
      7 C         140.1663  143.8425  158.4421 C.ar    1  UNL1        0.0564
      8 C         140.7558  145.1353  158.9231 C.ar    1  UNL1        0.1555
      9 N         140.5019  146.1786  157.8756 N.ar    1  UNL1       -0.1536
     10 C         139.2971  146.2075  155.4897 C.3     1  UNL1        0.1728
     11 C         138.9122  150.6891  155.3586 C.ar    1  UNL1        0.0875
     12 C         139.5634  149.9587  154.2218 C.ar    1  UNL1        0.0131
     13 C         139.6917  148.4649  154.2655 C.ar    1  UNL1        0.0174
     14 C         139.1688  147.7014  155.4460 C.ar    1  UNL1        0.0837
     15 N         138.5176  148.4318  156.5828 N.ar    1  UNL1       -0.2454
     16 C         138.3893  149.9257  156.5391 C.ar    1  UNL1        0.1087
     17 N         138.6556  153.6769  155.2713 N.1     1  UNL1       -0.1908
     18 C         138.7839  152.1830  155.3149 C.1     1  UNL1        0.1020
     19 C         141.4287  145.5237  162.8148 C.3     1  UNL1        0.1117
     20 C         141.1881  144.5915  163.9650 C.ar    1  UNL1       -0.0131
     21 C         142.2690  143.6493  164.4055 C.ar    1  UNL1       -0.0041
     22 C         142.0283  142.7170  165.5559 C.ar    1  UNL1       -0.0043
     23 C         140.7069  142.7271  166.2655 C.ar    1  UNL1       -0.0149
     24 C         139.6261  143.6692  165.8250 C.ar    1  UNL1       -0.0043
     25 C         139.8667  144.6015  164.6748 C.ar    1  UNL1       -0.0041
     26 C         140.4664  141.7948  167.4158 C.3     1  UNL1        0.1063
     27 C         139.9608  140.6150  168.1920 C.3     1  UNL1        0.0129
     28 C         139.6199  140.7582  166.7383 C.3     1  UNL1        0.0129
     29 C         141.2293  142.5075  168.4928 C.3     1  UNL1        0.4006
     30 F         141.9923  143.2202  169.5697 F       1  UNL1       -0.1697
     31 F         140.1015  143.4847  168.6450 F       1  UNL1       -0.1697
     32 F         142.3571  141.5302  168.3405 F       1  UNL1       -0.1697
@<TRIPOS>BOND
     1    17    18    3
     2    18    11    1
     3    11    12   ar
     4    12    13   ar
     5    13    14   ar
     6    14    10    1
     7    10     5    1
     8     5     6   ar
     9     6     7   ar
    10     7     8   ar
    11     8     1    1
    12     1     2   am
    13     2     3    2
    14     2    19    1
    15    19    20    1
    16    20    21   ar
    17    21    22   ar
    18    22    23   ar
    19    23    26    1
    20    26    29    1
    21    29    30    1
    22    29    31    1
    23    29    32    1
    24    26    27    1
    25    27    28    1
    26    23    24   ar
    27    24    25   ar
    28     8     9   ar
    29    14    15   ar
    30    15    16   ar
    31    16    11   ar
    32     9     5   ar
    33    25    20   ar
    34    28    26    1
    35     1     4    1
@<TRIPOS>MOLECULE
*****
 32 35 0 0 0
SMALL
GASTEIGER

@<TRIPOS>ATOM
      1 N         141.4583  145.1514  160.3424 N.am    1  UNL1       -0.2677
      2 C         140.6794  145.3630  161.6067 C.2     1  UNL1        0.2316
      3 O         139.1807  145.4079  161.5657 O.2     1  UNL1       -0.2744
      4 H         142.4420  145.1219  160.3694 H       1  UNL1        0.1563
      5 N         139.8338  145.4221  156.8277 N.ar    1  UNL1       -0.2421
      6 C         139.4278  144.0349  157.2286 C.ar    1  UNL1        0.0985
      7 C         139.9869  143.7646  158.5941 C.ar    1  UNL1        0.0564
      8 C         140.7385  144.9848  159.0370 C.ar    1  UNL1        0.1555
      9 N         140.6440  146.0092  157.9454 N.ar    1  UNL1       -0.1536
     10 C         139.4902  146.1027  155.5359 C.3     1  UNL1        0.1728
     11 C         138.9487  150.5685  155.4203 C.ar    1  UNL1        0.0875
     12 C         139.6648  149.8706  154.3022 C.ar    1  UNL1        0.0131
     13 C         139.8453  148.3820  154.3407 C.ar    1  UNL1        0.0174
     14 C         139.3097  147.5913  155.4974 C.ar    1  UNL1        0.0837
     15 N         138.5937  148.2892  156.6155 N.ar    1  UNL1       -0.2454
     16 C         138.4132  149.7778  156.5769 C.ar    1  UNL1        0.1087
     17 N         138.5877  153.5457  155.3432 N.1     1  UNL1       -0.1908
     18 C         138.7682  152.0571  155.3817 C.1     1  UNL1        0.1020
     19 C         141.3992  145.5296  162.9121 C.3     1  UNL1        0.1117
     20 C         141.1455  144.5695  164.0363 C.ar    1  UNL1       -0.0131
     21 C         142.2021  143.5806  164.4309 C.ar    1  UNL1       -0.0041
     22 C         141.9484  142.6205  165.5552 C.ar    1  UNL1       -0.0043
     23 C         140.6382  142.6493  166.2847 C.ar    1  UNL1       -0.0149
     24 C         139.5816  143.6382  165.8901 C.ar    1  UNL1       -0.0043
     25 C         139.8352  144.5982  164.7659 C.ar    1  UNL1       -0.0041
     26 C         140.3845  141.6891  167.4090 C.3     1  UNL1        0.1063
     27 C         140.1708  141.1739  168.8014 C.3     1  UNL1        0.0129
     28 C         140.4113  142.6366  168.5717 C.3     1  UNL1        0.0129
     29 C         140.2696  140.4083  166.6368 C.3     1  UNL1        0.4006
     30 F         140.1549  139.1274  165.8647 F       1  UNL1       -0.1697
     31 F         138.9382  140.8486  166.1046 F       1  UNL1       -0.1697
     32 F         141.6012  139.9681  167.1691 F       1  UNL1       -0.1697
@<TRIPOS>BOND
     1    17    18    3
     2    18    11    1
     3    11    12   ar
     4    12    13   ar
     5    13    14   ar
     6    14    10    1
     7    10     5    1
     8     5     6   ar
     9     6     7   ar
    10     7     8   ar
    11     8     1    1
    12     1     2   am
    13     2     3    2
    14     2    19    1
    15    19    20    1
    16    20    21   ar
    17    21    22   ar
    18    22    23   ar
    19    23    26    1
    20    26    29    1
    21    29    30    1
    22    29    31    1
    23    29    32    1
    24    26    27    1
    25    27    28    1
    26    23    24   ar
    27    24    25   ar
    28     8     9   ar
    29    14    15   ar
    30    15    16   ar
    31    16    11   ar
    32     9     5   ar
    33    25    20   ar
    34    28    26    1
    35     1     4    1
@<TRIPOS>MOLECULE
*****
 32 35 0 0 0
SMALL
GASTEIGER

@<TRIPOS>ATOM
      1 N         142.6534  137.6704  162.0369 N.am    1  UNL1       -0.2677
      2 C         141.2815  137.4777  162.6118 C.2     1  UNL1        0.2316
      3 O         140.0715  137.6783  161.7485 O.2     1  UNL1       -0.2744
      4 H         143.4476  137.5387  162.6036 H       1  UNL1        0.1563
      5 N         142.8925  137.9702  158.1744 N.ar    1  UNL1       -0.2421
      6 C         143.2365  139.3682  158.5955 C.ar    1  UNL1        0.0985
      7 C         143.1889  139.4261  160.0937 C.ar    1  UNL1        0.0564
      8 C         142.8153  138.0638  160.5985 C.ar    1  UNL1        0.1555
      9 N         142.6322  137.1641  159.4124 N.ar    1  UNL1       -0.1536
     10 C         142.8212  137.4668  156.7633 C.3     1  UNL1        0.1728
     11 C         142.2625  133.0731  155.9673 C.ar    1  UNL1        0.0875
     12 C         141.3468  134.0737  155.3270 C.ar    1  UNL1        0.0131
     13 C         141.5330  135.5383  155.5923 C.ar    1  UNL1        0.0174
     14 C         142.6350  136.0022  156.4980 C.ar    1  UNL1        0.0837
     15 N         143.5508  135.0016  157.1383 N.ar    1  UNL1       -0.2454
     16 C         143.3645  133.5371  156.8730 C.ar    1  UNL1        0.1087
     17 N         141.8901  130.1440  155.4367 N.1     1  UNL1       -0.1908
     18 C         142.0763  131.6086  155.7020 C.1     1  UNL1        0.1020
     19 C         141.1196  137.0842  164.0503 C.3     1  UNL1        0.1117
     20 C         140.9693  138.1407  165.1044 C.ar    1  UNL1       -0.0131
     21 C         142.1804  138.6705  165.8133 C.ar    1  UNL1       -0.0041
     22 C         142.0300  139.7270  166.8676 C.ar    1  UNL1       -0.0043
     23 C         140.6686  140.2536  167.2127 C.ar    1  UNL1       -0.0149
     24 C         139.4575  139.7239  166.5038 C.ar    1  UNL1       -0.0043
     25 C         139.6078  138.6674  165.4496 C.ar    1  UNL1       -0.0041
     26 C         140.5183  141.3102  168.2669 C.3     1  UNL1        0.1063
     27 C         140.4092  142.6669  168.8973 C.3     1  UNL1        0.0129
     28 C         140.5847  142.5416  167.4129 C.3     1  UNL1        0.0129
     29 C         140.3998  140.4458  169.4870 C.3     1  UNL1        0.4006
     30 F         140.2811  139.5814  170.7071 F       1  UNL1       -0.1697
     31 F         141.8737  140.5844  169.7285 F       1  UNL1       -0.1697
     32 F         138.9258  140.3072  169.2455 F       1  UNL1       -0.1697
@<TRIPOS>BOND
     1    17    18    3
     2    18    11    1
     3    11    12   ar
     4    12    13   ar
     5    13    14   ar
     6    14    10    1
     7    10     5    1
     8     5     6   ar
     9     6     7   ar
    10     7     8   ar
    11     8     1    1
    12     1     2   am
    13     2     3    2
    14     2    19    1
    15    19    20    1
    16    20    21   ar
    17    21    22   ar
    18    22    23   ar
    19    23    26    1
    20    26    29    1
    21    29    30    1
    22    29    31    1
    23    29    32    1
    24    26    27    1
    25    27    28    1
    26    23    24   ar
    27    24    25   ar
    28     8     9   ar
    29    14    15   ar
    30    15    16   ar
    31    16    11   ar
    32     9     5   ar
    33    25    20   ar
    34    28    26    1
    35     1     4    1
@<TRIPOS>MOLECULE
*****
 32 35 0 0 0
SMALL
GASTEIGER

@<TRIPOS>ATOM
      1 N         139.4595  138.6800  161.8430 N.am    1  UNL1       -0.2677
      2 C         139.8615  137.7434  162.9435 C.2     1  UNL1        0.2316
      3 O         141.0925  136.8989  162.7974 O.2     1  UNL1       -0.2744
      4 H         138.6516  139.2343  161.9390 H       1  UNL1        0.1563
      5 N         141.0478  138.5180  158.3052 N.ar    1  UNL1       -0.2421
      6 C         142.0808  139.3100  159.0506 C.ar    1  UNL1        0.0985
      7 C         141.6115  139.4672  160.4667 C.ar    1  UNL1        0.0564
      8 C         140.2885  138.7722  160.5964 C.ar    1  UNL1        0.1555
      9 N         139.9401  138.1856  159.2606 N.ar    1  UNL1       -0.1536
     10 C         141.1113  138.1270  156.8585 C.3     1  UNL1        0.1728
     11 C         142.7461  134.1019  155.6852 C.ar    1  UNL1        0.0875
     12 C         141.5042  134.6275  155.0284 C.ar    1  UNL1        0.0131
     13 C         140.9593  135.9692  155.4195 C.ar    1  UNL1        0.0174
     14 C         141.6562  136.7853  156.4674 C.ar    1  UNL1        0.0837
     15 N         142.8981  136.2597  157.1242 N.ar    1  UNL1       -0.2454
     16 C         143.4431  134.9180  156.7331 C.ar    1  UNL1        0.1087
     17 N         143.8360  131.4186  154.9031 N.1     1  UNL1       -0.1908
     18 C         143.2911  132.7602  155.2941 C.1     1  UNL1        0.1020
     19 C         139.0325  137.6513  164.1902 C.3     1  UNL1        0.1117
     20 C         139.3098  138.5678  165.3448 C.ar    1  UNL1       -0.0131
     21 C         138.3095  138.6997  166.4547 C.ar    1  UNL1       -0.0041
     22 C         138.5869  139.6163  167.6093 C.ar    1  UNL1       -0.0043
     23 C         139.8645  140.4008  167.6539 C.ar    1  UNL1       -0.0149
     24 C         140.8649  140.2689  166.5440 C.ar    1  UNL1       -0.0043
     25 C         140.5875  139.3523  165.3895 C.ar    1  UNL1       -0.0041
     26 C         140.1418  141.3174  168.8086 C.3     1  UNL1        0.1063
     27 C         140.5270  142.5534  169.5661 C.3     1  UNL1        0.0129
     28 C         140.5486  142.5558  168.0662 C.3     1  UNL1        0.0129
     29 C         139.8315  140.3974  169.9519 C.3     1  UNL1        0.4006
     30 F         139.5212  139.4773  171.0952 F       1  UNL1       -0.1697
     31 F         138.5868  141.1814  170.2449 F       1  UNL1       -0.1697
     32 F         141.0763  139.6133  169.6588 F       1  UNL1       -0.1697
@<TRIPOS>BOND
     1    17    18    3
     2    18    11    1
     3    11    12   ar
     4    12    13   ar
     5    13    14   ar
     6    14    10    1
     7    10     5    1
     8     5     6   ar
     9     6     7   ar
    10     7     8   ar
    11     8     1    1
    12     1     2   am
    13     2     3    2
    14     2    19    1
    15    19    20    1
    16    20    21   ar
    17    21    22   ar
    18    22    23   ar
    19    23    26    1
    20    26    29    1
    21    29    30    1
    22    29    31    1
    23    29    32    1
    24    26    27    1
    25    27    28    1
    26    23    24   ar
    27    24    25   ar
    28     8     9   ar
    29    14    15   ar
    30    15    16   ar
    31    16    11   ar
    32     9     5   ar
    33    25    20   ar
    34    28    26    1
    35     1     4    1
@<TRIPOS>MOLECULE
*****
 32 35 0 0 0
SMALL
GASTEIGER

@<TRIPOS>ATOM
      1 N         143.1683  138.2669  162.3867 N.am    1  UNL1       -0.2677
      2 C         144.1145  139.3617  162.7817 C.2     1  UNL1        0.2316
      3 O         144.5286  140.3944  161.7757 O.2     1  UNL1       -0.2744
      4 H         142.8966  137.5891  163.0469 H       1  UNL1        0.1563
      5 N         142.4509  137.7775  158.6036 N.ar    1  UNL1       -0.2421
      6 C         141.1836  138.4408  159.0556 C.ar    1  UNL1        0.0985
      7 C         141.2981  138.7049  160.5278 C.ar    1  UNL1        0.0564
      8 C         142.6362  138.2048  160.9857 C.ar    1  UNL1        0.1555
      9 N         143.3486  137.6317  159.7966 N.ar    1  UNL1       -0.1536
     10 C         142.7652  137.3374  157.2046 C.3     1  UNL1        0.1728
     11 C         142.2688  133.0194  156.0391 C.ar    1  UNL1        0.0875
     12 C         141.5210  134.0872  155.2972 C.ar    1  UNL1        0.0131
     13 C         141.6864  135.5266  155.6857 C.ar    1  UNL1        0.0174
     14 C         142.5998  135.8981  156.8161 C.ar    1  UNL1        0.0837
     15 N         143.3476  134.8303  157.5579 N.ar    1  UNL1       -0.2454
     16 C         143.1822  133.3909  157.1694 C.ar    1  UNL1        0.1087
     17 N         141.9379  130.1407  155.2621 N.1     1  UNL1       -0.1908
     18 C         142.1034  131.5801  155.6506 C.1     1  UNL1        0.1020
     19 C         144.6467  139.4239  164.1827 C.3     1  UNL1        0.1117
     20 C         143.7525  139.8578  165.3061 C.ar    1  UNL1       -0.0131
     21 C         143.2610  141.2736  165.3694 C.ar    1  UNL1       -0.0041
     22 C         142.3666  141.7075  166.4929 C.ar    1  UNL1       -0.0043
     23 C         141.9640  140.7256  167.5529 C.ar    1  UNL1       -0.0149
     24 C         142.4555  139.3098  167.4896 C.ar    1  UNL1       -0.0043
     25 C         143.3497  138.8759  166.3662 C.ar    1  UNL1       -0.0041
     26 C         141.0697  141.1596  168.6763 C.3     1  UNL1        0.1063
     27 C         139.8719  141.2339  169.5762 C.3     1  UNL1        0.0129
     28 C         139.8852  140.2748  168.4230 C.3     1  UNL1        0.0129
     29 C         141.9435  142.1950  169.3198 C.3     1  UNL1        0.4006
     30 F         142.8175  143.2304  169.9634 F       1  UNL1       -0.1697
     31 F         140.9742  143.2653  168.9140 F       1  UNL1       -0.1697
     32 F         142.9129  141.1247  169.7257 F       1  UNL1       -0.1697
@<TRIPOS>BOND
     1    17    18    3
     2    18    11    1
     3    11    12   ar
     4    12    13   ar
     5    13    14   ar
     6    14    10    1
     7    10     5    1
     8     5     6   ar
     9     6     7   ar
    10     7     8   ar
    11     8     1    1
    12     1     2   am
    13     2     3    2
    14     2    19    1
    15    19    20    1
    16    20    21   ar
    17    21    22   ar
    18    22    23   ar
    19    23    26    1
    20    26    29    1
    21    29    30    1
    22    29    31    1
    23    29    32    1
    24    26    27    1
    25    27    28    1
    26    23    24   ar
    27    24    25   ar
    28     8     9   ar
    29    14    15   ar
    30    15    16   ar
    31    16    11   ar
    32     9     5   ar
    33    25    20   ar
    34    28    26    1
    35     1     4    1
@<TRIPOS>MOLECULE
*****
 32 35 0 0 0
SMALL
GASTEIGER

@<TRIPOS>ATOM
      1 N         137.7003  140.8565  162.8275 N.am    1  UNL1       -0.2677
      2 C         138.7314  140.1479  163.6549 C.2     1  UNL1        0.2316
      3 O         140.0532  139.7775  163.0502 O.2     1  UNL1       -0.2744
      4 H         136.8328  141.0996  163.2244 H       1  UNL1        0.1563
      5 N         138.2944  141.0057  158.9947 N.ar    1  UNL1       -0.2421
      6 C         138.5818  142.4244  159.3880 C.ar    1  UNL1        0.0985
      7 C         138.3943  142.5412  160.8717 C.ar    1  UNL1        0.0564
      8 C         137.9909  141.1946  161.3954 C.ar    1  UNL1        0.1555
      9 N         137.9292  140.2457  160.2353 N.ar    1  UNL1       -0.1536
     10 C         138.3606  140.4454  157.6049 C.3     1  UNL1        0.1728
     11 C         141.1633  137.0486  156.6794 C.ar    1  UNL1        0.0875
     12 C         141.5318  138.0622  157.7218 C.ar    1  UNL1        0.0131
     13 C         140.5976  139.1945  158.0303 C.ar    1  UNL1        0.0174
     14 C         139.2948  139.3132  157.2964 C.ar    1  UNL1        0.0837
     15 N         138.9263  138.2996  156.2539 N.ar    1  UNL1       -0.2454
     16 C         139.8606  137.1673  155.9454 C.ar    1  UNL1        0.1087
     17 N         143.0318  134.7841  156.0623 N.1     1  UNL1       -0.1908
     18 C         142.0975  135.9164  156.3708 C.1     1  UNL1        0.1020
     19 C         138.4408  139.8097  165.0871 C.3     1  UNL1        0.1117
     20 C         139.2001  140.4901  166.1874 C.ar    1  UNL1       -0.0131
     21 C         139.9024  141.7887  165.9221 C.ar    1  UNL1       -0.0041
     22 C         140.6618  142.4690  167.0225 C.ar    1  UNL1       -0.0043
     23 C         140.7188  141.8507  168.3878 C.ar    1  UNL1       -0.0149
     24 C         140.0165  140.5521  168.6531 C.ar    1  UNL1       -0.0043
     25 C         139.2572  139.8718  167.5528 C.ar    1  UNL1       -0.0041
     26 C         141.4781  142.5311  169.4881 C.3     1  UNL1        0.1063
     27 C         142.6339  143.0485  170.2922 C.3     1  UNL1        0.0129
     28 C         142.8833  142.2982  169.0175 C.3     1  UNL1        0.0129
     29 C         140.3368  143.0003  170.3409 C.3     1  UNL1        0.4006
     30 F         139.1956  143.4694  171.1937 F       1  UNL1       -0.1697
     31 F         140.0494  144.0934  169.3548 F       1  UNL1       -0.1697
     32 F         140.6243  141.9071  171.3270 F       1  UNL1       -0.1697
@<TRIPOS>BOND
     1    17    18    3
     2    18    11    1
     3    11    12   ar
     4    12    13   ar
     5    13    14   ar
     6    14    10    1
     7    10     5    1
     8     5     6   ar
     9     6     7   ar
    10     7     8   ar
    11     8     1    1
    12     1     2   am
    13     2     3    2
    14     2    19    1
    15    19    20    1
    16    20    21   ar
    17    21    22   ar
    18    22    23   ar
    19    23    26    1
    20    26    29    1
    21    29    30    1
    22    29    31    1
    23    29    32    1
    24    26    27    1
    25    27    28    1
    26    23    24   ar
    27    24    25   ar
    28     8     9   ar
    29    14    15   ar
    30    15    16   ar
    31    16    11   ar
    32     9     5   ar
    33    25    20   ar
    34    28    26    1
    35     1     4    1
@<TRIPOS>MOLECULE
*****
 32 35 0 0 0
SMALL
GASTEIGER

@<TRIPOS>ATOM
      1 N         143.1753  138.3265  162.1698 N.am    1  UNL1       -0.2677
      2 C         144.1302  139.4172  162.5551 C.2     1  UNL1        0.2316
      3 O         144.5326  140.4524  161.5471 O.2     1  UNL1       -0.2744
      4 H         142.9111  137.6470  162.8314 H       1  UNL1        0.1563
      5 N         142.3761  137.8011  158.4080 N.ar    1  UNL1       -0.2421
      6 C         141.1689  138.5704  158.8561 C.ar    1  UNL1        0.0985
      7 C         141.3213  138.8609  160.3199 C.ar    1  UNL1        0.0564
      8 C         142.6228  138.2711  160.7764 C.ar    1  UNL1        0.1555
      9 N         143.2746  137.6161  159.5949 N.ar    1  UNL1       -0.1536
     10 C         142.6387  137.3040  157.0174 C.3     1  UNL1        0.1728
     11 C         142.2962  132.9129  156.0953 C.ar    1  UNL1        0.0875
     12 C         141.4884  133.9081  155.3162 C.ar    1  UNL1        0.0131
     13 C         141.6026  135.3718  155.6236 C.ar    1  UNL1        0.0174
     14 C         142.5245  135.8403  156.7100 C.ar    1  UNL1        0.0837
     15 N         143.3323  134.8451  157.4891 N.ar    1  UNL1       -0.2454
     16 C         143.2181  133.3814  157.1817 C.ar    1  UNL1        0.1087
     17 N         142.0678  129.9854  155.4805 N.1     1  UNL1       -0.1908
     18 C         142.1820  131.4492  155.7879 C.1     1  UNL1        0.1020
     19 C         144.6827  139.4726  163.9486 C.3     1  UNL1        0.1117
     20 C         143.8174  139.9420  165.0803 C.ar    1  UNL1       -0.0131
     21 C         143.2122  138.9460  166.0246 C.ar    1  UNL1       -0.0041
     22 C         142.3469  139.4154  167.1565 C.ar    1  UNL1       -0.0043
     23 C         142.0869  140.8807  167.3439 C.ar    1  UNL1       -0.0149
     24 C         142.6921  141.8767  166.3996 C.ar    1  UNL1       -0.0043
     25 C         143.5574  141.4073  165.2678 C.ar    1  UNL1       -0.0041
     26 C         141.2215  141.3500  168.4758 C.3     1  UNL1        0.1063
     27 C         140.7712  142.1265  169.6776 C.3     1  UNL1        0.0129
     28 C         142.1158  142.3974  169.0704 C.3     1  UNL1        0.0129
     29 C         140.0268  140.4658  168.2743 C.3     1  UNL1        0.4006
     30 F         138.8320  139.5816  168.0728 F       1  UNL1       -0.1697
     31 F         140.3845  139.7002  169.5136 F       1  UNL1       -0.1697
     32 F         139.6691  141.2314  167.0350 F       1  UNL1       -0.1697
@<TRIPOS>BOND
     1    17    18    3
     2    18    11    1
     3    11    12   ar
     4    12    13   ar
     5    13    14   ar
     6    14    10    1
     7    10     5    1
     8     5     6   ar
     9     6     7   ar
    10     7     8   ar
    11     8     1    1
    12     1     2   am
    13     2     3    2
    14     2    19    1
    15    19    20    1
    16    20    21   ar
    17    21    22   ar
    18    22    23   ar
    19    23    26    1
    20    26    29    1
    21    29    30    1
    22    29    31    1
    23    29    32    1
    24    26    27    1
    25    27    28    1
    26    23    24   ar
    27    24    25   ar
    28     8     9   ar
    29    14    15   ar
    30    15    16   ar
    31    16    11   ar
    32     9     5   ar
    33    25    20   ar
    34    28    26    1
    35     1     4    1
@<TRIPOS>MOLECULE
*****
 32 35 0 0 0
SMALL
GASTEIGER

@<TRIPOS>ATOM
      1 N         139.1956  143.0287  161.0065 N.am    1  UNL1       -0.2677
      2 C         138.5089  143.6414  162.1910 C.2     1  UNL1        0.2316
      3 O         138.4049  145.1331  162.3089 O.2     1  UNL1       -0.2744
      4 H         139.2638  142.0496  160.9292 H       1  UNL1        0.1563
      5 N         140.1401  145.0376  157.8225 N.ar    1  UNL1       -0.2421
      6 C         141.2103  145.4831  158.7744 C.ar    1  UNL1        0.0985
      7 C         140.9868  144.7848  160.0831 C.ar    1  UNL1        0.0564
      8 C         139.7784  143.9077  159.9399 C.ar    1  UNL1        0.1555
      9 N         139.2551  144.0639  158.5429 N.ar    1  UNL1       -0.1536
     10 C         139.9825  145.4869  156.4001 C.3     1  UNL1        0.1728
     11 C         138.9286  149.7673  155.4961 C.ar    1  UNL1        0.0875
     12 C         139.6619  148.9445  154.4787 C.ar    1  UNL1        0.0131
     13 C         140.0132  147.5177  154.7800 C.ar    1  UNL1        0.0174
     14 C         139.6312  146.9137  156.0988 C.ar    1  UNL1        0.0837
     15 N         138.8979  147.7365  157.1162 N.ar    1  UNL1       -0.2454
     16 C         138.5466  149.1633  156.8149 C.ar    1  UNL1        0.1087
     17 N         138.2260  152.6209  154.8934 N.1     1  UNL1       -0.1908
     18 C         138.5773  151.1941  155.1947 C.1     1  UNL1        0.1020
     19 C         137.9261  142.7624  163.2576 C.3     1  UNL1        0.1117
     20 C         138.7290  142.4357  164.4818 C.ar    1  UNL1       -0.0131
     21 C         138.7262  141.0395  165.0299 C.ar    1  UNL1       -0.0041
     22 C         139.5291  140.7128  166.2542 C.ar    1  UNL1       -0.0043
     23 C         140.3347  141.7823  166.9301 C.ar    1  UNL1       -0.0149
     24 C         140.3375  143.1786  166.3820 C.ar    1  UNL1       -0.0043
     25 C         139.5346  143.5053  165.1578 C.ar    1  UNL1       -0.0041
     26 C         141.1376  141.4556  168.1544 C.3     1  UNL1        0.1063
     27 C         142.2710  140.9699  169.0085 C.3     1  UNL1        0.0129
     28 C         142.3680  140.8844  167.5141 C.3     1  UNL1        0.0129
     29 C         140.1862  141.9133  169.2198 C.3     1  UNL1        0.4006
     30 F         139.2348  142.3711  170.2852 F       1  UNL1       -0.1697
     31 F         139.4671  140.5992  169.1421 F       1  UNL1       -0.1697
     32 F         140.9053  143.2274  169.2974 F       1  UNL1       -0.1697
@<TRIPOS>BOND
     1    17    18    3
     2    18    11    1
     3    11    12   ar
     4    12    13   ar
     5    13    14   ar
     6    14    10    1
     7    10     5    1
     8     5     6   ar
     9     6     7   ar
    10     7     8   ar
    11     8     1    1
    12     1     2   am
    13     2     3    2
    14     2    19    1
    15    19    20    1
    16    20    21   ar
    17    21    22   ar
    18    22    23   ar
    19    23    26    1
    20    26    29    1
    21    29    30    1
    22    29    31    1
    23    29    32    1
    24    26    27    1
    25    27    28    1
    26    23    24   ar
    27    24    25   ar
    28     8     9   ar
    29    14    15   ar
    30    15    16   ar
    31    16    11   ar
    32     9     5   ar
    33    25    20   ar
    34    28    26    1
    35     1     4    1
@<TRIPOS>MOLECULE
*****
 32 35 0 0 0
SMALL
GASTEIGER

@<TRIPOS>ATOM
      1 N         140.7022  139.6542  163.5330 N.am    1  UNL1       -0.2677
      2 C         139.2022  139.6573  163.5481 C.2     1  UNL1        0.2316
      3 O         138.4391  139.1766  162.3496 O.2     1  UNL1       -0.2744
      4 H         141.2030  139.9697  164.3196 H       1  UNL1        0.1563
      5 N         142.4432  139.0815  160.1115 N.ar    1  UNL1       -0.2421
      6 C         142.7025  137.7700  160.7918 C.ar    1  UNL1        0.0985
      7 C         142.0819  137.8249  162.1564 C.ar    1  UNL1        0.0564
      8 C         141.4389  139.1704  162.3194 C.ar    1  UNL1        0.1555
      9 N         141.6622  139.9469  161.0556 N.ar    1  UNL1       -0.1536
     10 C         142.8868  139.4609  158.7298 C.3     1  UNL1        0.1728
     11 C         142.3894  136.5556  155.3296 C.ar    1  UNL1        0.0875
     12 C         141.2501  136.8099  156.2716 C.ar    1  UNL1        0.0131
     13 C         141.4159  137.7783  157.4050 C.ar    1  UNL1        0.0174
     14 C         142.7210  138.4925  157.5964 C.ar    1  UNL1        0.0837
     15 N         143.8603  138.2382  156.6544 N.ar    1  UNL1       -0.2454
     16 C         143.6944  137.2697  155.5210 C.ar    1  UNL1        0.1087
     17 N         142.0577  134.6187  153.0628 N.1     1  UNL1       -0.1908
     18 C         142.2235  135.5871  154.1962 C.1     1  UNL1        0.1020
     19 C         138.4654  140.1412  164.7617 C.3     1  UNL1        0.1117
     20 C         139.2226  140.7410  165.9093 C.ar    1  UNL1       -0.0131
     21 C         139.4428  139.9440  167.1608 C.ar    1  UNL1       -0.0041
     22 C         140.2001  140.5439  168.3084 C.ar    1  UNL1       -0.0043
     23 C         140.7370  141.9406  168.2043 C.ar    1  UNL1       -0.0149
     24 C         140.5168  142.7375  166.9528 C.ar    1  UNL1       -0.0043
     25 C         139.7596  142.1377  165.8052 C.ar    1  UNL1       -0.0041
     26 C         141.4943  142.5404  169.3519 C.3     1  UNL1        0.1063
     27 C         142.6484  143.0011  170.1920 C.3     1  UNL1        0.0129
     28 C         142.9001  142.3484  168.8651 C.3     1  UNL1        0.0129
     29 C         140.3516  142.9406  170.2373 C.3     1  UNL1        0.4006
     30 F         139.2089  143.3407  171.1228 F       1  UNL1       -0.1697
     31 F         140.1833  144.2052  169.4485 F       1  UNL1       -0.1697
     32 F         140.5199  141.6759  171.0262 F       1  UNL1       -0.1697
@<TRIPOS>BOND
     1    17    18    3
     2    18    11    1
     3    11    12   ar
     4    12    13   ar
     5    13    14   ar
     6    14    10    1
     7    10     5    1
     8     5     6   ar
     9     6     7   ar
    10     7     8   ar
    11     8     1    1
    12     1     2   am
    13     2     3    2
    14     2    19    1
    15    19    20    1
    16    20    21   ar
    17    21    22   ar
    18    22    23   ar
    19    23    26    1
    20    26    29    1
    21    29    30    1
    22    29    31    1
    23    29    32    1
    24    26    27    1
    25    27    28    1
    26    23    24   ar
    27    24    25   ar
    28     8     9   ar
    29    14    15   ar
    30    15    16   ar
    31    16    11   ar
    32     9     5   ar
    33    25    20   ar
    34    28    26    1
    35     1     4    1
