@<TRIPOS>MOLECULE
*****
 34 38 0 0 0
SMALL
GASTEIGER

@<TRIPOS>ATOM
      1 C         140.7935  139.9594  163.8803 C.ar    1  UNL1        0.1317
      2 C         142.1855  139.4172  163.7443 C.ar    1  UNL1        0.0346
      3 C         142.9534  139.6326  162.4739 C.ar    1  UNL1        0.0121
      4 C         142.3294  140.3901  161.3396 C.ar    1  UNL1        0.1076
      5 C         140.9375  140.9323  161.4756 C.ar    1  UNL1        0.1080
      6 N         140.1696  140.7169  162.7460 N.ar    1  UNL1       -0.2289
      7 C         136.9539  138.8826  170.2323 C.3     1  UNL1        0.0055
      8 C         138.1166  139.8300  170.2102 C.3     1  UNL1        0.0004
      9 C         138.8846  140.0453  168.9398 C.3     1  UNL1        0.0001
     10 C         138.4898  139.3133  167.6915 C.3     1  UNL1        0.0033
     11 C         137.3270  138.3660  167.7137 C.3     1  UNL1        0.0001
     12 C         136.5591  138.1506  168.9841 C.3     1  UNL1        0.0004
     13 C         138.0950  138.5813  166.4433 C.3     1  UNL1        0.0215
     14 C         138.8629  138.7967  165.1729 C.3     1  UNL1        0.0922
     15 N         140.0256  139.7440  165.1507 N.pl3   1  UNL1       -0.2932
     16 C         140.4204  140.4760  166.3990 C.3     1  UNL1        0.0922
     17 C         139.6525  140.2607  167.6694 C.3     1  UNL1        0.0215
     18 C         136.1860  138.6673  171.5027 C.3     1  UNL1        0.0417
     19 O         137.2995  136.3663  171.9671 O.co2   1  UNL1       -0.5492
     20 C         136.1416  137.3058  172.1307 C.2     1  UNL1        0.0503
     21 O         134.9394  136.8837  172.9222 O.co2   1  UNL1       -0.5492
     22 C         143.0973  140.6055  160.0692 C.2     1  UNL1        0.3767
     23 N         144.0704  141.7159  159.8045 N.2     1  UNL1       -0.0308
     24 C         144.6015  141.5450  158.4121 C.2     1  UNL1        0.2320
     25 C         145.5889  142.3395  157.6099 C.2     1  UNL1        0.0537
     26 C         145.9315  141.9180  156.2118 C.2     1  UNL1        0.0714
     27 C         145.2867  140.7018  155.6159 C.2     1  UNL1       -0.0133
     28 C         144.2993  139.9072  156.4181 C.3     1  UNL1        0.1037
     29 C         143.9567  140.3288  157.8162 C.2     1  UNL1        0.2178
     30 N         143.0271  139.7482  158.8403 N.2     1  UNL1       -0.0347
     31 C         146.9190  142.7126  155.4095 C.3     1  UNL1        0.4184
     32 F         147.9064  143.5071  154.6073 F       1  UNL1       -0.1659
     33 F         145.8093  143.1985  154.5250 F       1  UNL1       -0.1659
     34 F         148.0287  142.2266  156.2940 F       1  UNL1       -0.1659
@<TRIPOS>UNITY_ATOM_ATTR
19 1
charge -1
@<TRIPOS>BOND
     1    19    20   ar
     2    20    21   ar
     3    20    18    1
     4    18     7    1
     5     7     8    1
     6     8     9    1
     7     9    10    1
     8    10    11    1
     9    11    12    1
    10    10    13    1
    11    13    14    1
    12    14    15    1
    13    15     1    1
    14     1     2   ar
    15     2     3   ar
    16     3     4   ar
    17     4    22    1
    18    22    23    2
    19    23    24    1
    20    24    25    2
    21    25    26    1
    22    26    31    1
    23    31    32    1
    24    31    33    1
    25    31    34    1
    26    26    27    2
    27    27    28    1
    28    28    29    1
    29    29    30    2
    30     4     5   ar
    31     5     6   ar
    32    15    16    1
    33    16    17    1
    34    12     7    1
    35     6     1   ar
    36    17    10    1
    37    30    22    1
    38    29    24    1
@<TRIPOS>MOLECULE
*****
 34 38 0 0 0
SMALL
GASTEIGER

@<TRIPOS>ATOM
      1 C         141.0559  141.5139  155.4487 C.ar    1  UNL1        0.1317
      2 C         142.0047  141.0757  156.5246 C.ar    1  UNL1        0.0346
      3 C         142.3086  139.6184  156.7087 C.ar    1  UNL1        0.0121
      4 C         141.6638  138.5993  155.8168 C.ar    1  UNL1        0.1076
      5 C         140.7150  139.0374  154.7409 C.ar    1  UNL1        0.1080
      6 N         140.4110  140.4947  154.5568 N.ar    1  UNL1       -0.2289
      7 C         139.5360  148.8004  154.5283 C.3     1  UNL1        0.0055
      8 C         138.9233  148.0448  155.6701 C.3     1  UNL1        0.0004
      9 C         139.2273  146.5875  155.8541 C.3     1  UNL1        0.0001
     10 C         140.1440  145.8858  154.8965 C.3     1  UNL1        0.0033
     11 C         140.7567  146.6413  153.7547 C.3     1  UNL1        0.0001
     12 C         140.4527  148.0986  153.5706 C.3     1  UNL1        0.0004
     13 C         141.0606  145.1840  153.9388 C.3     1  UNL1        0.0215
     14 C         141.3646  143.7267  154.1228 C.3     1  UNL1        0.0922
     15 N         140.7519  142.9712  155.2646 N.pl3   1  UNL1       -0.2932
     16 C         139.8352  143.6729  156.2223 C.3     1  UNL1        0.0922
     17 C         139.5313  145.1302  156.0382 C.3     1  UNL1        0.0215
     18 C         139.2321  150.2577  154.3442 C.3     1  UNL1        0.0417
     19 O         139.1514  151.8862  156.3670 O.co2   1  UNL1       -0.5492
     20 C         139.8991  151.2790  155.2170 C.2     1  UNL1        0.0503
     21 O         141.3139  151.6933  154.9399 O.co2   1  UNL1       -0.5492
     22 C         141.9678  137.1420  156.0009 C.2     1  UNL1        0.3767
     23 N         143.0356  136.5688  156.8848 N.2     1  UNL1       -0.0308
     24 C         142.9851  135.0745  156.7635 C.2     1  UNL1        0.2320
     25 C         143.7978  133.9877  157.4024 C.2     1  UNL1        0.0537
     26 C         143.5115  132.5505  157.0824 C.2     1  UNL1        0.0714
     27 C         142.4125  132.2002  156.1235 C.2     1  UNL1       -0.0133
     28 C         141.5997  133.2870  155.4847 C.3     1  UNL1        0.1037
     29 C         141.8860  134.7242  155.8047 C.2     1  UNL1        0.2178
     30 N         141.2573  136.0019  155.3334 N.2     1  UNL1       -0.0347
     31 C         144.3243  131.4636  157.7212 C.3     1  UNL1        0.4184
     32 F         145.1370  130.3767  158.3600 F       1  UNL1       -0.1659
     33 F         143.1611  130.5240  157.6025 F       1  UNL1       -0.1659
     34 F         145.4875  132.4031  157.8399 F       1  UNL1       -0.1659
@<TRIPOS>UNITY_ATOM_ATTR
19 1
charge -1
@<TRIPOS>BOND
     1    19    20   ar
     2    20    21   ar
     3    20    18    1
     4    18     7    1
     5     7     8    1
     6     8     9    1
     7     9    10    1
     8    10    11    1
     9    11    12    1
    10    10    13    1
    11    13    14    1
    12    14    15    1
    13    15     1    1
    14     1     2   ar
    15     2     3   ar
    16     3     4   ar
    17     4    22    1
    18    22    23    2
    19    23    24    1
    20    24    25    2
    21    25    26    1
    22    26    31    1
    23    31    32    1
    24    31    33    1
    25    31    34    1
    26    26    27    2
    27    27    28    1
    28    28    29    1
    29    29    30    2
    30     4     5   ar
    31     5     6   ar
    32    15    16    1
    33    16    17    1
    34    12     7    1
    35     6     1   ar
    36    17    10    1
    37    30    22    1
    38    29    24    1
@<TRIPOS>MOLECULE
*****
 34 38 0 0 0
SMALL
GASTEIGER

@<TRIPOS>ATOM
      1 C         143.2258  141.7073  161.8770 C.ar    1  UNL1        0.1317
      2 C         144.0067  142.9303  161.4971 C.ar    1  UNL1        0.0346
      3 C         144.6396  143.0247  160.1404 C.ar    1  UNL1        0.0121
      4 C         144.4916  141.8960  159.1637 C.ar    1  UNL1        0.1076
      5 C         143.7107  140.6730  159.5436 C.ar    1  UNL1        0.1080
      6 N         143.0778  140.5786  160.9003 N.ar    1  UNL1       -0.2289
      7 C         140.0615  141.2357  168.6604 C.3     1  UNL1        0.0055
      8 C         141.1361  142.2501  168.4030 C.3     1  UNL1        0.0004
      9 C         141.7689  142.3444  167.0463 C.3     1  UNL1        0.0001
     10 C         141.3272  141.4244  165.9471 C.3     1  UNL1        0.0033
     11 C         140.2526  140.4100  166.2045 C.3     1  UNL1        0.0001
     12 C         139.6198  140.3157  167.5612 C.3     1  UNL1        0.0004
     13 C         140.8855  140.5043  164.8478 C.3     1  UNL1        0.0215
     14 C         141.5184  140.5986  163.4912 C.3     1  UNL1        0.0922
     15 N         142.5930  141.6130  163.2337 N.pl3   1  UNL1       -0.2932
     16 C         143.0347  142.5330  164.3330 C.3     1  UNL1        0.0922
     17 C         142.4018  142.4387  165.6897 C.3     1  UNL1        0.0215
     18 C         139.4286  141.1414  170.0171 C.3     1  UNL1        0.0417
     19 O         140.9929  141.8603  171.9630 O.co2   1  UNL1       -0.5492
     20 C         139.8023  142.1221  171.0888 C.2     1  UNL1        0.0503
     21 O         138.9854  143.3645  171.2865 O.co2   1  UNL1       -0.5492
     22 C         145.1244  141.9903  157.8070 C.2     1  UNL1        0.3767
     23 N         146.5435  142.3836  157.5215 N.2     1  UNL1       -0.0308
     24 C         146.7455  142.3443  156.0357 C.2     1  UNL1        0.2320
     25 C         147.9407  142.6348  155.1772 C.2     1  UNL1        0.0537
     26 C         147.8416  142.5077  153.6859 C.2     1  UNL1        0.0714
     27 C         146.5473  142.0900  153.0531 C.2     1  UNL1       -0.0133
     28 C         145.3521  141.7995  153.9116 C.3     1  UNL1        0.1037
     29 C         145.4512  141.9266  155.4029 C.2     1  UNL1        0.2178
     30 N         144.4494  141.7078  156.4976 N.2     1  UNL1       -0.0347
     31 C         149.0368  142.7982  152.8273 C.3     1  UNL1        0.4184
     32 F         150.2320  143.0886  151.9688 F       1  UNL1       -0.1659
     33 F         149.4815  141.3722  152.9639 F       1  UNL1       -0.1659
     34 F         148.5921  144.2242  152.6907 F       1  UNL1       -0.1659
@<TRIPOS>UNITY_ATOM_ATTR
19 1
charge -1
@<TRIPOS>BOND
     1    19    20   ar
     2    20    21   ar
     3    20    18    1
     4    18     7    1
     5     7     8    1
     6     8     9    1
     7     9    10    1
     8    10    11    1
     9    11    12    1
    10    10    13    1
    11    13    14    1
    12    14    15    1
    13    15     1    1
    14     1     2   ar
    15     2     3   ar
    16     3     4   ar
    17     4    22    1
    18    22    23    2
    19    23    24    1
    20    24    25    2
    21    25    26    1
    22    26    31    1
    23    31    32    1
    24    31    33    1
    25    31    34    1
    26    26    27    2
    27    27    28    1
    28    28    29    1
    29    29    30    2
    30     4     5   ar
    31     5     6   ar
    32    15    16    1
    33    16    17    1
    34    12     7    1
    35     6     1   ar
    36    17    10    1
    37    30    22    1
    38    29    24    1
@<TRIPOS>MOLECULE
*****
 34 38 0 0 0
SMALL
GASTEIGER

@<TRIPOS>ATOM
      1 C         141.4793  137.1788  157.1444 C.ar    1  UNL1        0.1317
      2 C         142.5504  137.8057  157.9868 C.ar    1  UNL1        0.0346
      3 C         142.2290  138.9898  158.8498 C.ar    1  UNL1        0.0121
      4 C         140.8365  139.5469  158.8703 C.ar    1  UNL1        0.1076
      5 C         139.7654  138.9200  158.0279 C.ar    1  UNL1        0.1080
      6 N         140.0868  137.7360  157.1650 N.ar    1  UNL1       -0.2289
      7 C         143.0862  131.2584  152.8297 C.3     1  UNL1        0.0055
      8 C         142.1601  132.3249  152.3250 C.3     1  UNL1        0.0004
      9 C         141.8387  133.5090  153.1880 C.3     1  UNL1        0.0001
     10 C         142.4435  133.6265  154.5556 C.3     1  UNL1        0.0033
     11 C         143.3696  132.5600  155.0603 C.3     1  UNL1        0.0001
     12 C         143.6910  131.3759  154.1973 C.3     1  UNL1        0.0004
     13 C         143.0482  133.7441  155.9232 C.3     1  UNL1        0.0215
     14 C         142.7268  134.9282  156.7861 C.3     1  UNL1        0.0922
     15 N         141.8007  135.9947  156.2815 N.pl3   1  UNL1       -0.2932
     16 C         141.1959  135.8771  154.9139 C.3     1  UNL1        0.0922
     17 C         141.5173  134.6931  154.0509 C.3     1  UNL1        0.0215
     18 C         143.4076  130.0743  151.9668 C.3     1  UNL1        0.0417
     19 O         143.1551  127.7813  153.1620 O.co2   1  UNL1       -0.5492
     20 C         144.0273  128.8504  152.5733 C.2     1  UNL1        0.0503
     21 O         145.5192  128.6954  152.5912 O.co2   1  UNL1       -0.5492
     22 C         140.5151  140.7310  159.7332 C.2     1  UNL1        0.3767
     23 N         140.0589  140.6833  161.1614 N.2     1  UNL1       -0.0308
     24 C         139.8553  142.0935  161.6303 C.2     1  UNL1        0.2320
     25 C         139.4118  142.6593  162.9468 C.2     1  UNL1        0.0537
     26 C         139.2987  144.1443  163.1250 C.2     1  UNL1        0.0714
     27 C         139.6291  145.0636  161.9866 C.2     1  UNL1       -0.0133
     28 C         140.0726  144.4978  160.6702 C.3     1  UNL1        0.1037
     29 C         140.1857  143.0128  160.4920 C.2     1  UNL1        0.2178
     30 N         140.5935  142.1707  159.3196 N.2     1  UNL1       -0.0347
     31 C         138.8551  144.7102  164.4415 C.3     1  UNL1        0.4184
     32 F         138.4115  145.2760  165.7579 F       1  UNL1       -0.1659
     33 F         137.4344  144.3573  164.1145 F       1  UNL1       -0.1659
     34 F         140.2758  145.0631  164.7685 F       1  UNL1       -0.1659
@<TRIPOS>UNITY_ATOM_ATTR
19 1
charge -1
@<TRIPOS>BOND
     1    19    20   ar
     2    20    21   ar
     3    20    18    1
     4    18     7    1
     5     7     8    1
     6     8     9    1
     7     9    10    1
     8    10    11    1
     9    11    12    1
    10    10    13    1
    11    13    14    1
    12    14    15    1
    13    15     1    1
    14     1     2   ar
    15     2     3   ar
    16     3     4   ar
    17     4    22    1
    18    22    23    2
    19    23    24    1
    20    24    25    2
    21    25    26    1
    22    26    31    1
    23    31    32    1
    24    31    33    1
    25    31    34    1
    26    26    27    2
    27    27    28    1
    28    28    29    1
    29    29    30    2
    30     4     5   ar
    31     5     6   ar
    32    15    16    1
    33    16    17    1
    34    12     7    1
    35     6     1   ar
    36    17    10    1
    37    30    22    1
    38    29    24    1
@<TRIPOS>MOLECULE
*****
 34 38 0 0 0
SMALL
GASTEIGER

@<TRIPOS>ATOM
      1 C         141.3611  139.9831  155.4438 C.ar    1  UNL1        0.1317
      2 C         140.6060  140.4459  154.2332 C.ar    1  UNL1        0.0346
      3 C         140.3511  141.9089  154.0222 C.ar    1  UNL1        0.0121
      4 C         140.8515  142.9092  155.0217 C.ar    1  UNL1        0.1076
      5 C         141.6067  142.4464  156.2323 C.ar    1  UNL1        0.1080
      6 N         141.8615  140.9833  156.4433 N.ar    1  UNL1       -0.2289
      7 C         142.6353  132.6678  156.4990 C.3     1  UNL1        0.0055
      8 C         141.5978  133.1136  155.5116 C.3     1  UNL1        0.0004
      9 C         141.3430  134.5767  155.3006 C.3     1  UNL1        0.0001
     10 C         142.1256  135.5939  156.0769 C.3     1  UNL1        0.0033
     11 C         143.1631  135.1481  157.0643 C.3     1  UNL1        0.0001
     12 C         143.4179  133.6850  157.2753 C.3     1  UNL1        0.0004
     13 C         142.9082  136.6112  156.8532 C.3     1  UNL1        0.0215
     14 C         142.6534  138.0742  156.6422 C.3     1  UNL1        0.0922
     15 N         141.6160  138.5200  155.6548 N.pl3   1  UNL1       -0.2932
     16 C         140.8334  137.5028  154.8785 C.3     1  UNL1        0.0922
     17 C         141.0882  136.0398  155.0895 C.3     1  UNL1        0.0215
     18 C         142.8901  131.2048  156.7100 C.3     1  UNL1        0.0417
     19 O         144.8633  130.4529  158.2237 O.co2   1  UNL1       -0.5492
     20 C         144.2955  130.7019  156.8578 C.2     1  UNL1        0.0503
     21 O         145.1333  130.4481  155.6397 O.co2   1  UNL1       -0.5492
     22 C         140.5967  144.3722  154.8107 C.2     1  UNL1        0.3767
     23 N         139.7754  145.2610  155.6970 N.2     1  UNL1       -0.0308
     24 C         139.7895  146.6415  155.1104 C.2     1  UNL1        0.2320
     25 C         139.1538  147.9263  155.5521 C.2     1  UNL1        0.0537
     26 C         139.3481  149.1755  154.7449 C.2     1  UNL1        0.0714
     27 C         140.1782  149.1399  153.4960 C.2     1  UNL1       -0.0133
     28 C         140.8139  147.8551  153.0543 C.3     1  UNL1        0.1037
     29 C         140.6195  146.6059  153.8615 C.2     1  UNL1        0.2178
     30 N         141.1184  145.2035  153.6763 N.2     1  UNL1       -0.0347
     31 C         138.7124  150.4604  155.1865 C.3     1  UNL1        0.4184
     32 F         138.0767  151.7452  155.6282 F       1  UNL1       -0.1659
     33 F         138.4097  149.8510  156.5233 F       1  UNL1       -0.1659
     34 F         139.0151  151.0697  153.8498 F       1  UNL1       -0.1659
@<TRIPOS>UNITY_ATOM_ATTR
19 1
charge -1
@<TRIPOS>BOND
     1    19    20   ar
     2    20    21   ar
     3    20    18    1
     4    18     7    1
     5     7     8    1
     6     8     9    1
     7     9    10    1
     8    10    11    1
     9    11    12    1
    10    10    13    1
    11    13    14    1
    12    14    15    1
    13    15     1    1
    14     1     2   ar
    15     2     3   ar
    16     3     4   ar
    17     4    22    1
    18    22    23    2
    19    23    24    1
    20    24    25    2
    21    25    26    1
    22    26    31    1
    23    31    32    1
    24    31    33    1
    25    31    34    1
    26    26    27    2
    27    27    28    1
    28    28    29    1
    29    29    30    2
    30     4     5   ar
    31     5     6   ar
    32    15    16    1
    33    16    17    1
    34    12     7    1
    35     6     1   ar
    36    17    10    1
    37    30    22    1
    38    29    24    1
@<TRIPOS>MOLECULE
*****
 34 38 0 0 0
SMALL
GASTEIGER

@<TRIPOS>ATOM
      1 C         141.2375  143.8455  160.4216 C.ar    1  UNL1        0.1317
      2 C         141.4247  142.3656  160.5784 C.ar    1  UNL1        0.0346
      3 C         141.4526  141.7540  161.9478 C.ar    1  UNL1        0.0121
      4 C         141.2933  142.6224  163.1604 C.ar    1  UNL1        0.1076
      5 C         141.1061  144.1024  163.0036 C.ar    1  UNL1        0.1080
      6 N         141.0782  144.7139  161.6342 N.ar    1  UNL1       -0.2289
      7 C         141.0982  146.9032  153.5746 C.3     1  UNL1        0.0055
      8 C         142.1210  145.8581  153.9086 C.3     1  UNL1        0.0004
      9 C         142.1489  145.2466  155.2780 C.3     1  UNL1        0.0001
     10 C         141.1539  145.6801  156.3134 C.3     1  UNL1        0.0033
     11 C         140.1311  146.7252  155.9794 C.3     1  UNL1        0.0001
     12 C         140.1033  147.3368  154.6100 C.3     1  UNL1        0.0004
     13 C         140.1590  146.1137  157.3488 C.3     1  UNL1        0.0215
     14 C         140.1869  145.5021  158.7182 C.3     1  UNL1        0.0922
     15 N         141.2097  144.4571  159.0522 N.pl3   1  UNL1       -0.2932
     16 C         142.2046  144.0235  158.0168 C.3     1  UNL1        0.0922
     17 C         142.1767  144.6350  156.6474 C.3     1  UNL1        0.0215
     18 C         141.0703  147.5147  152.2052 C.3     1  UNL1        0.0417
     19 O         142.4531  149.7017  151.9698 O.co2   1  UNL1       -0.5492
     20 C         141.1267  149.0054  152.0483 C.2     1  UNL1        0.0503
     21 O         139.8569  149.7999  151.9697 O.co2   1  UNL1       -0.5492
     22 C         141.3211  142.0109  164.5298 C.2     1  UNL1        0.3767
     23 N         142.5367  141.8291  165.3897 N.2     1  UNL1       -0.0308
     24 C         142.1051  141.1797  166.6711 C.2     1  UNL1        0.2320
     25 C         142.8704  140.7599  167.8910 C.2     1  UNL1        0.0537
     26 C         142.1534  140.1205  169.0429 C.2     1  UNL1        0.0714
     27 C         140.6711  139.9008  168.9749 C.2     1  UNL1       -0.0133
     28 C         139.9059  140.3205  167.7551 C.3     1  UNL1        0.1037
     29 C         140.6229  140.9600  166.6031 C.2     1  UNL1        0.2178
     30 N         140.1384  141.4737  165.2798 N.2     1  UNL1       -0.0347
     31 C         142.9187  139.7007  170.2628 C.3     1  UNL1        0.4184
     32 F         143.6839  139.2809  171.4827 F       1  UNL1       -0.1659
     33 F         143.6847  140.9897  170.2258 F       1  UNL1       -0.1659
     34 F         142.1526  138.4116  170.2999 F       1  UNL1       -0.1659
@<TRIPOS>UNITY_ATOM_ATTR
19 1
charge -1
@<TRIPOS>BOND
     1    19    20   ar
     2    20    21   ar
     3    20    18    1
     4    18     7    1
     5     7     8    1
     6     8     9    1
     7     9    10    1
     8    10    11    1
     9    11    12    1
    10    10    13    1
    11    13    14    1
    12    14    15    1
    13    15     1    1
    14     1     2   ar
    15     2     3   ar
    16     3     4   ar
    17     4    22    1
    18    22    23    2
    19    23    24    1
    20    24    25    2
    21    25    26    1
    22    26    31    1
    23    31    32    1
    24    31    33    1
    25    31    34    1
    26    26    27    2
    27    27    28    1
    28    28    29    1
    29    29    30    2
    30     4     5   ar
    31     5     6   ar
    32    15    16    1
    33    16    17    1
    34    12     7    1
    35     6     1   ar
    36    17    10    1
    37    30    22    1
    38    29    24    1
@<TRIPOS>MOLECULE
*****
 34 38 0 0 0
SMALL
GASTEIGER

@<TRIPOS>ATOM
      1 C         140.4521  143.8955  154.8676 C.ar    1  UNL1        0.1317
      2 C         141.7622  143.3998  154.3311 C.ar    1  UNL1        0.0346
      3 C         142.0727  141.9324  154.3483 C.ar    1  UNL1        0.0121
      4 C         141.0731  140.9607  154.9020 C.ar    1  UNL1        0.1076
      5 C         139.7631  141.4564  155.4386 C.ar    1  UNL1        0.1080
      6 N         139.4526  142.9238  155.4213 N.ar    1  UNL1       -0.2289
      7 C         138.8996  151.2325  154.7816 C.3     1  UNL1        0.0055
      8 C         138.3653  150.3657  155.8829 C.3     1  UNL1        0.0004
      9 C         138.6758  148.8983  155.9001 C.3     1  UNL1        0.0001
     10 C         139.5206  148.2977  154.8160 C.3     1  UNL1        0.0033
     11 C         140.0550  149.1645  153.7146 C.3     1  UNL1        0.0001
     12 C         139.7444  150.6319  153.6974 C.3     1  UNL1        0.0004
     13 C         140.3655  147.6971  153.7318 C.3     1  UNL1        0.0215
     14 C         140.6760  146.2297  153.7490 C.3     1  UNL1        0.0922
     15 N         140.1416  145.3629  154.8504 N.pl3   1  UNL1       -0.2932
     16 C         139.2968  145.9635  155.9346 C.3     1  UNL1        0.0922
     17 C         138.9863  147.4309  155.9173 C.3     1  UNL1        0.0215
     18 C         138.5891  152.7000  154.7643 C.3     1  UNL1        0.0417
     19 O         140.5947  154.2821  154.2905 O.co2   1  UNL1       -0.5492
     20 C         139.3320  153.6129  153.8345 C.2     1  UNL1        0.0503
     21 O         138.8122  153.8567  152.4487 O.co2   1  UNL1       -0.5492
     22 C         141.3837  139.4933  154.9192 C.2     1  UNL1        0.3767
     23 N         141.6212  138.6566  156.1413 N.2     1  UNL1       -0.0308
     24 C         141.8955  137.2511  155.6948 C.2     1  UNL1        0.2320
     25 C         142.1984  135.9963  156.4587 C.2     1  UNL1        0.0537
     26 C         142.4333  134.7096  155.7246 C.2     1  UNL1        0.0714
     27 C         142.3653  134.6776  154.2264 C.2     1  UNL1       -0.0133
     28 C         142.0624  135.9324  153.4625 C.3     1  UNL1        0.1037
     29 C         141.8275  137.2191  154.1966 C.2     1  UNL1        0.2178
     30 N         141.5111  138.6049  153.7174 N.2     1  UNL1       -0.0347
     31 C         142.7362  133.4547  156.4885 C.3     1  UNL1        0.4184
     32 F         143.0391  132.1998  157.2524 F       1  UNL1       -0.1659
     33 F         141.5056  132.8120  155.9207 F       1  UNL1       -0.1659
     34 F         143.9669  134.0973  157.0563 F       1  UNL1       -0.1659
@<TRIPOS>UNITY_ATOM_ATTR
19 1
charge -1
@<TRIPOS>BOND
     1    19    20   ar
     2    20    21   ar
     3    20    18    1
     4    18     7    1
     5     7     8    1
     6     8     9    1
     7     9    10    1
     8    10    11    1
     9    11    12    1
    10    10    13    1
    11    13    14    1
    12    14    15    1
    13    15     1    1
    14     1     2   ar
    15     2     3   ar
    16     3     4   ar
    17     4    22    1
    18    22    23    2
    19    23    24    1
    20    24    25    2
    21    25    26    1
    22    26    31    1
    23    31    32    1
    24    31    33    1
    25    31    34    1
    26    26    27    2
    27    27    28    1
    28    28    29    1
    29    29    30    2
    30     4     5   ar
    31     5     6   ar
    32    15    16    1
    33    16    17    1
    34    12     7    1
    35     6     1   ar
    36    17    10    1
    37    30    22    1
    38    29    24    1
@<TRIPOS>MOLECULE
*****
 34 38 0 0 0
SMALL
GASTEIGER

@<TRIPOS>ATOM
      1 C         141.8419  140.9369  163.9278 C.ar    1  UNL1        0.1317
      2 C         141.1419  142.2596  164.0298 C.ar    1  UNL1        0.0346
      3 C         140.7406  142.9937  162.7848 C.ar    1  UNL1        0.0121
      4 C         141.0392  142.4050  161.4378 C.ar    1  UNL1        0.1076
      5 C         141.7391  141.0823  161.3359 C.ar    1  UNL1        0.1080
      6 N         142.1405  140.3482  162.5809 N.ar    1  UNL1       -0.2289
      7 C         143.8486  137.2664  170.1529 C.3     1  UNL1        0.0055
      8 C         144.3939  136.8401  168.8221 C.3     1  UNL1        0.0004
      9 C         143.9925  137.5742  167.5771 C.3     1  UNL1        0.0001
     10 C         143.0459  138.7346  167.6629 C.3     1  UNL1        0.0033
     11 C         142.5007  139.1609  168.9936 C.3     1  UNL1        0.0001
     12 C         142.9020  138.4268  170.2386 C.3     1  UNL1        0.0004
     13 C         142.0993  139.8950  167.7486 C.3     1  UNL1        0.0215
     14 C         141.6980  140.6291  166.5036 C.3     1  UNL1        0.0922
     15 N         142.2432  140.2028  165.1728 N.pl3   1  UNL1       -0.2932
     16 C         143.1898  139.0424  165.0871 C.3     1  UNL1        0.0922
     17 C         143.5912  138.3083  166.3321 C.3     1  UNL1        0.0215
     18 C         144.2500  136.5324  171.3979 C.3     1  UNL1        0.0417
     19 O         146.7640  137.1857  171.3457 O.co2   1  UNL1       -0.5492
     20 C         145.6892  136.1784  171.6288 C.2     1  UNL1        0.0503
     21 O         146.0536  134.8173  172.1430 O.co2   1  UNL1       -0.5492
     22 C         140.6378  143.1391  160.1928 C.2     1  UNL1        0.3767
     23 N         140.8255  144.6047  159.9342 N.2     1  UNL1       -0.0308
     24 C         140.2820  144.9079  158.5694 C.2     1  UNL1        0.2320
     25 C         140.1962  146.1827  157.7836 C.2     1  UNL1        0.0537
     26 C         139.5869  146.1793  156.4130 C.2     1  UNL1        0.0714
     27 C         139.0633  144.9011  155.8282 C.2     1  UNL1       -0.0133
     28 C         139.1490  143.6263  156.6139 C.3     1  UNL1        0.1037
     29 C         139.7584  143.6297  157.9845 C.2     1  UNL1        0.2178
     30 N         139.9783  142.5366  158.9879 N.2     1  UNL1       -0.0347
     31 C         139.5011  147.4542  155.6272 C.3     1  UNL1        0.4184
     32 F         139.4153  148.7290  154.8414 F       1  UNL1       -0.1659
     33 F         138.7306  148.0915  156.7453 F       1  UNL1       -0.1659
     34 F         140.2716  146.8169  154.5091 F       1  UNL1       -0.1659
@<TRIPOS>UNITY_ATOM_ATTR
19 1
charge -1
@<TRIPOS>BOND
     1    19    20   ar
     2    20    21   ar
     3    20    18    1
     4    18     7    1
     5     7     8    1
     6     8     9    1
     7     9    10    1
     8    10    11    1
     9    11    12    1
    10    10    13    1
    11    13    14    1
    12    14    15    1
    13    15     1    1
    14     1     2   ar
    15     2     3   ar
    16     3     4   ar
    17     4    22    1
    18    22    23    2
    19    23    24    1
    20    24    25    2
    21    25    26    1
    22    26    31    1
    23    31    32    1
    24    31    33    1
    25    31    34    1
    26    26    27    2
    27    27    28    1
    28    28    29    1
    29    29    30    2
    30     4     5   ar
    31     5     6   ar
    32    15    16    1
    33    16    17    1
    34    12     7    1
    35     6     1   ar
    36    17    10    1
    37    30    22    1
    38    29    24    1
@<TRIPOS>MOLECULE
*****
 34 38 0 0 0
SMALL
GASTEIGER

@<TRIPOS>ATOM
      1 C         143.5831  140.7661  159.4103 C.ar    1  UNL1        0.1317
      2 C         144.1320  139.8963  160.5020 C.ar    1  UNL1        0.0346
      3 C         143.3241  139.6485  161.7413 C.ar    1  UNL1        0.0121
      4 C         141.9672  140.2706  161.8888 C.ar    1  UNL1        0.1076
      5 C         141.4183  141.1405  160.7970 C.ar    1  UNL1        0.1080
      6 N         142.2262  141.3883  159.5578 N.ar    1  UNL1       -0.2289
      7 C         147.6230  142.0050  153.2139 C.3     1  UNL1        0.0055
      8 C         147.9613  142.7242  154.4860 C.3     1  UNL1        0.0004
      9 C         147.1533  142.4764  155.7253 C.3     1  UNL1        0.0001
     10 C         146.0070  141.5095  155.6924 C.3     1  UNL1        0.0033
     11 C         145.6687  140.7904  154.4203 C.3     1  UNL1        0.0001
     12 C         146.4767  141.0381  153.1810 C.3     1  UNL1        0.0004
     13 C         144.8608  140.5426  155.6596 C.3     1  UNL1        0.0215
     14 C         144.0528  140.2948  156.8988 C.3     1  UNL1        0.0922
     15 N         144.3911  141.0139  158.1710 N.pl3   1  UNL1       -0.2932
     16 C         145.5374  141.9808  158.2038 C.3     1  UNL1        0.0922
     17 C         146.3453  142.2286  156.9646 C.3     1  UNL1        0.0215
     18 C         148.4309  142.2528  151.9746 C.3     1  UNL1        0.0417
     19 O         150.7056  143.4996  152.1212 O.co2   1  UNL1       -0.5492
     20 C         149.9292  142.2189  152.0369 C.2     1  UNL1        0.0503
     21 O         150.6512  140.9042  152.0148 O.co2   1  UNL1       -0.5492
     22 C         141.1592  140.0228  163.1281 C.2     1  UNL1        0.3767
     23 N         141.4288  140.5994  164.4863 N.2     1  UNL1       -0.0308
     24 C         140.3760  140.0879  165.4244 C.2     1  UNL1        0.2320
     25 C         140.1365  140.3196  166.8869 C.2     1  UNL1        0.0537
     26 C         138.9766  139.6587  167.5708 C.2     1  UNL1        0.0714
     27 C         138.0563  138.7660  166.7923 C.2     1  UNL1       -0.0133
     28 C         138.2958  138.5342  165.3298 C.3     1  UNL1        0.1037
     29 C         139.4557  139.1952  164.6459 C.2     1  UNL1        0.2178
     30 N         139.9397  139.1550  163.2267 N.2     1  UNL1       -0.0347
     31 C         138.7370  139.8905  169.0334 C.3     1  UNL1        0.4184
     32 F         138.4975  140.1222  170.4958 F       1  UNL1       -0.1659
     33 F         139.9981  140.6988  169.1118 F       1  UNL1       -0.1659
     34 F         137.4759  139.0822  168.9549 F       1  UNL1       -0.1659
@<TRIPOS>UNITY_ATOM_ATTR
19 1
charge -1
@<TRIPOS>BOND
     1    19    20   ar
     2    20    21   ar
     3    20    18    1
     4    18     7    1
     5     7     8    1
     6     8     9    1
     7     9    10    1
     8    10    11    1
     9    11    12    1
    10    10    13    1
    11    13    14    1
    12    14    15    1
    13    15     1    1
    14     1     2   ar
    15     2     3   ar
    16     3     4   ar
    17     4    22    1
    18    22    23    2
    19    23    24    1
    20    24    25    2
    21    25    26    1
    22    26    31    1
    23    31    32    1
    24    31    33    1
    25    31    34    1
    26    26    27    2
    27    27    28    1
    28    28    29    1
    29    29    30    2
    30     4     5   ar
    31     5     6   ar
    32    15    16    1
    33    16    17    1
    34    12     7    1
    35     6     1   ar
    36    17    10    1
    37    30    22    1
    38    29    24    1
