@<TRIPOS>MOLECULE
*****
 38 42 0 0 0
SMALL
GASTEIGER

@<TRIPOS>ATOM
      1 C         139.6201  138.4327  161.0487 C.3     1  UNL1        0.0118
      2 C         139.1084  138.7206  159.6684 C.3     1  UNL1        0.0179
      3 C         140.0588  138.7556  158.5084 C.3     1  UNL1        0.0724
      4 N         141.5208  138.5027  158.7288 N.3     1  UNL1       -0.2689
      5 C         142.0325  138.2148  160.1091 C.3     1  UNL1        0.0724
      6 C         141.0821  138.1798  161.2691 C.3     1  UNL1        0.0179
      7 C         138.6697  138.3977  162.2087 C.3     1  UNL1        0.0854
      8 O         137.5331  140.6488  162.8337 O.2     1  UNL1       -0.2749
      9 C         138.5518  139.5850  163.1178 C.2     1  UNL1        0.2257
     10 N         139.4525  139.7085  164.3109 N.am    1  UNL1       -0.2760
     11 C         139.3345  140.8958  165.2200 C.3     1  UNL1        0.1150
     12 C         140.2352  141.0192  166.4130 C.3     1  UNL1        0.1165
     13 N         141.2539  139.9554  166.6971 N.am    1  UNL1       -0.2605
     14 C         142.1546  140.0789  167.8902 C.2     1  UNL1        0.3073
     15 O         143.1732  139.0151  168.1742 O.2     1  UNL1       -0.2523
     16 N         142.0367  141.2662  168.7992 N.am    1  UNL1       -0.2640
     17 C         142.8638  141.5249  170.0235 C.3     1  UNL1        0.0950
     18 C         142.4093  142.8218  170.6245 C.3     1  UNL1        0.0233
     19 C         141.3011  143.3648  169.7717 C.3     1  UNL1        0.0233
     20 C         141.0708  142.4033  168.6436 C.3     1  UNL1        0.0950
     21 C         141.3718  138.7681  165.7880 C.3     1  UNL1        0.1165
     22 C         140.4711  138.6447  164.5950 C.3     1  UNL1        0.1150
     23 C         142.4712  138.5377  157.5688 C.3     1  UNL1        0.1007
     24 C         142.9876  137.2569  156.9833 C.ar    1  UNL1        0.0129
     25 C         143.6596  137.1043  155.6510 C.ar    1  UNL1        0.0176
     26 C         144.0099  135.6568  155.4716 C.ar    1  UNL1        0.0799
     27 N         143.5543  134.9148  156.6931 N.ar    1  UNL1       -0.3038
     28 C         142.9225  135.9037  157.6274 C.ar    1  UNL1        0.0772
     29 C         143.7043  133.4425  156.9374 C.ar    1  UNL1        0.0640
     30 C         142.7182  132.4797  156.3454 C.ar    1  UNL1        0.0175
     31 C         142.8682  131.0074  156.5896 C.ar    1  UNL1        0.0053
     32 C         144.0042  130.4978  157.4260 C.ar    1  UNL1        0.0715
     33 C         144.9904  131.4605  158.0180 C.ar    1  UNL1        0.0053
     34 C         144.8405  132.9329  157.7738 C.ar    1  UNL1        0.0175
     35 C         144.1542  129.0255  157.6702 C.3     1  UNL1        0.4186
     36 F         144.3041  127.5531  157.9146 F       1  UNL1       -0.1659
     37 F         144.7828  128.8651  156.3178 F       1  UNL1       -0.1659
     38 F         143.5256  129.1858  159.0228 F       1  UNL1       -0.1659
@<TRIPOS>BOND
     1     8     9    2
     2     9     7    1
     3     7     1    1
     4     1     2    1
     5     2     3    1
     6     3     4    1
     7     4    23    1
     8    23    24    1
     9    24    25   ar
    10    25    26   ar
    11    26    27   ar
    12    27    29    1
    13    29    30   ar
    14    30    31   ar
    15    31    32   ar
    16    32    35    1
    17    35    36    1
    18    35    37    1
    19    35    38    1
    20    32    33   ar
    21    33    34   ar
    22    27    28   ar
    23     4     5    1
    24     5     6    1
    25     9    10   am
    26    10    11    1
    27    11    12    1
    28    12    13    1
    29    13    14   am
    30    14    15    2
    31    14    16   am
    32    16    17    1
    33    17    18    1
    34    18    19    1
    35    19    20    1
    36    13    21    1
    37    21    22    1
    38     6     1    1
    39    22    10    1
    40    28    24   ar
    41    20    16    1
    42    34    29   ar
@<TRIPOS>MOLECULE
*****
 38 42 0 0 0
SMALL
GASTEIGER

@<TRIPOS>ATOM
      1 C         141.4105  138.1410  157.7317 C.3     1  UNL1        0.0118
      2 C         140.0351  138.6879  157.4887 C.3     1  UNL1        0.0179
      3 C         139.2522  139.2799  158.6230 C.3     1  UNL1        0.0724
      4 N         139.8448  139.3250  160.0002 N.3     1  UNL1       -0.2689
      5 C         141.2202  138.7781  160.2433 C.3     1  UNL1        0.0724
      6 C         142.0030  138.1861  159.1090 C.3     1  UNL1        0.0179
      7 C         142.1935  137.5490  156.5974 C.3     1  UNL1        0.0854
      8 O         140.6251  136.4851  154.8203 O.2     1  UNL1       -0.2749
      9 C         141.6757  136.3373  155.8807 C.2     1  UNL1        0.2257
     10 N         142.2086  134.9779  156.2242 N.am    1  UNL1       -0.2760
     11 C         141.6909  133.7662  155.5074 C.3     1  UNL1        0.1150
     12 C         142.2237  132.4068  155.8510 C.3     1  UNL1        0.1165
     13 N         143.2743  132.2591  156.9114 N.am    1  UNL1       -0.2605
     14 C         143.8072  130.8996  157.2550 C.2     1  UNL1        0.3073
     15 O         144.8578  130.7519  158.3154 O.2     1  UNL1       -0.2523
     16 N         143.2894  129.6880  156.5382 N.am    1  UNL1       -0.2640
     17 C         143.7247  128.2718  156.7727 C.3     1  UNL1        0.0950
     18 C         142.9498  127.3884  155.8405 C.3     1  UNL1        0.0233
     19 C         142.0356  128.2585  155.0299 C.3     1  UNL1        0.0233
     20 C         142.2455  129.6797  155.4611 C.3     1  UNL1        0.0950
     21 C         143.7921  133.4707  157.6282 C.3     1  UNL1        0.1165
     22 C         143.2592  134.8301  157.2846 C.3     1  UNL1        0.1150
     23 C         139.0618  139.9171  161.1345 C.3     1  UNL1        0.1007
     24 C         139.2130  139.3627  162.5201 C.ar    1  UNL1        0.0129
     25 C         138.7540  138.0122  162.9843 C.ar    1  UNL1        0.0176
     26 C         139.1071  137.8764  164.4358 C.ar    1  UNL1        0.0799
     27 N         139.7842  139.1429  164.8687 N.ar    1  UNL1       -0.3038
     28 C         139.8497  140.0615  163.6847 C.ar    1  UNL1        0.0772
     29 C         140.3046  139.4389  166.2441 C.ar    1  UNL1        0.0640
     30 C         139.3527  139.8103  167.3422 C.ar    1  UNL1        0.0175
     31 C         139.8731  140.1062  168.7176 C.ar    1  UNL1        0.0053
     32 C         141.3452  140.0308  168.9948 C.ar    1  UNL1        0.0715
     33 C         142.2971  139.6594  167.8967 C.ar    1  UNL1        0.0053
     34 C         141.7768  139.3634  166.5213 C.ar    1  UNL1        0.0175
     35 C         141.8655  140.3267  170.3702 C.3     1  UNL1        0.4186
     36 F         142.3858  140.6227  171.7456 F       1  UNL1       -0.1659
     37 F         143.2524  140.4652  169.8157 F       1  UNL1       -0.1659
     38 F         140.4786  140.1883  170.9247 F       1  UNL1       -0.1659
@<TRIPOS>BOND
     1     8     9    2
     2     9     7    1
     3     7     1    1
     4     1     2    1
     5     2     3    1
     6     3     4    1
     7     4    23    1
     8    23    24    1
     9    24    25   ar
    10    25    26   ar
    11    26    27   ar
    12    27    29    1
    13    29    30   ar
    14    30    31   ar
    15    31    32   ar
    16    32    35    1
    17    35    36    1
    18    35    37    1
    19    35    38    1
    20    32    33   ar
    21    33    34   ar
    22    27    28   ar
    23     4     5    1
    24     5     6    1
    25     9    10   am
    26    10    11    1
    27    11    12    1
    28    12    13    1
    29    13    14   am
    30    14    15    2
    31    14    16   am
    32    16    17    1
    33    17    18    1
    34    18    19    1
    35    19    20    1
    36    13    21    1
    37    21    22    1
    38     6     1    1
    39    22    10    1
    40    28    24   ar
    41    20    16    1
    42    34    29   ar
@<TRIPOS>MOLECULE
*****
 38 42 0 0 0
SMALL
GASTEIGER

@<TRIPOS>ATOM
      1 C         139.9720  140.5053  158.8318 C.3     1  UNL1        0.0118
      2 C         138.8824  139.7840  159.5682 C.3     1  UNL1        0.0179
      3 C         138.1375  140.4758  160.6712 C.3     1  UNL1        0.0724
      4 N         138.4822  141.8889  161.0376 N.3     1  UNL1       -0.2689
      5 C         139.5719  142.6102  160.3011 C.3     1  UNL1        0.0724
      6 C         140.3167  141.9184  159.1982 C.3     1  UNL1        0.0179
      7 C         140.7170  139.8134  157.7288 C.3     1  UNL1        0.0854
      8 O         142.7587  139.0823  159.1595 O.2     1  UNL1       -0.2749
      9 C         141.7789  138.8065  158.0577 C.2     1  UNL1        0.2257
     10 N         141.8612  137.5235  157.2847 N.am    1  UNL1       -0.2760
     11 C         142.9232  136.5166  157.6136 C.3     1  UNL1        0.1150
     12 C         143.0054  135.2337  156.8406 C.3     1  UNL1        0.1165
     13 N         142.0257  134.9578  155.7388 N.am    1  UNL1       -0.2605
     14 C         142.1080  133.6749  154.9658 C.2     1  UNL1        0.3073
     15 O         141.1283  133.3990  153.8640 O.2     1  UNL1       -0.2523
     16 N         143.1700  132.6680  155.2947 N.am    1  UNL1       -0.2640
     17 C         143.3750  131.3480  154.6123 C.3     1  UNL1        0.0950
     18 C         144.5451  130.6684  155.2596 C.3     1  UNL1        0.0233
     19 C         145.0633  131.5684  156.3420 C.3     1  UNL1        0.0233
     20 C         144.2134  132.8041  156.3637 C.3     1  UNL1        0.0950
     21 C         140.9637  135.9648  155.4099 C.3     1  UNL1        0.1165
     22 C         140.8815  137.2476  156.1829 C.3     1  UNL1        0.1150
     23 C         137.7373  142.5808  162.1406 C.3     1  UNL1        0.1007
     24 C         138.4186  142.8558  163.4483 C.ar    1  UNL1        0.0129
     25 C         138.5177  144.1895  164.1274 C.ar    1  UNL1        0.0176
     26 C         139.2808  144.0034  165.4053 C.ar    1  UNL1        0.0799
     27 N         139.6534  142.5546  165.5159 N.ar    1  UNL1       -0.3038
     28 C         139.1205  141.8453  164.3064 C.ar    1  UNL1        0.0772
     29 C         140.4236  141.9255  166.6389 C.ar    1  UNL1        0.0640
     30 C         141.7470  142.4972  167.0533 C.ar    1  UNL1        0.0175
     31 C         142.5172  141.8681  168.1762 C.ar    1  UNL1        0.0053
     32 C         141.9641  140.6674  168.8847 C.ar    1  UNL1        0.0715
     33 C         140.6407  140.0956  168.4704 C.ar    1  UNL1        0.0053
     34 C         139.8705  140.7247  167.3474 C.ar    1  UNL1        0.0175
     35 C         142.7343  140.0383  170.0077 C.3     1  UNL1        0.4186
     36 F         143.5046  139.4093  171.1307 F       1  UNL1       -0.1659
     37 F         141.7337  138.9225  170.0689 F       1  UNL1       -0.1659
     38 F         143.7349  141.1542  169.9465 F       1  UNL1       -0.1659
@<TRIPOS>BOND
     1     8     9    2
     2     9     7    1
     3     7     1    1
     4     1     2    1
     5     2     3    1
     6     3     4    1
     7     4    23    1
     8    23    24    1
     9    24    25   ar
    10    25    26   ar
    11    26    27   ar
    12    27    29    1
    13    29    30   ar
    14    30    31   ar
    15    31    32   ar
    16    32    35    1
    17    35    36    1
    18    35    37    1
    19    35    38    1
    20    32    33   ar
    21    33    34   ar
    22    27    28   ar
    23     4     5    1
    24     5     6    1
    25     9    10   am
    26    10    11    1
    27    11    12    1
    28    12    13    1
    29    13    14   am
    30    14    15    2
    31    14    16   am
    32    16    17    1
    33    17    18    1
    34    18    19    1
    35    19    20    1
    36    13    21    1
    37    21    22    1
    38     6     1    1
    39    22    10    1
    40    28    24   ar
    41    20    16    1
    42    34    29   ar
@<TRIPOS>MOLECULE
*****
 38 42 0 0 0
SMALL
GASTEIGER

@<TRIPOS>ATOM
      1 C         140.0975  139.3863  158.0179 C.3     1  UNL1        0.0118
      2 C         140.3375  138.3738  159.0983 C.3     1  UNL1        0.0179
      3 C         139.4654  138.3582  160.3186 C.3     1  UNL1        0.0724
      4 N         138.3532  139.3550  160.4584 N.3     1  UNL1       -0.2689
      5 C         138.1132  140.3674  159.3780 C.3     1  UNL1        0.0724
      6 C         138.9854  140.3831  158.1577 C.3     1  UNL1        0.0179
      7 C         140.9697  139.4020  156.7976 C.3     1  UNL1        0.0854
      8 O         139.9823  138.4498  154.5912 O.2     1  UNL1       -0.2749
      9 C         140.8701  138.2950  155.7903 C.2     1  UNL1        0.2257
     10 N         141.6584  137.0333  155.9820 N.am    1  UNL1       -0.2760
     11 C         141.5588  135.9264  154.9747 C.3     1  UNL1        0.1150
     12 C         142.3471  134.6647  155.1664 C.3     1  UNL1        0.1165
     13 N         143.2349  134.5100  156.3655 N.am    1  UNL1       -0.2605
     14 C         144.0232  133.2482  156.5572 C.2     1  UNL1        0.3073
     15 O         144.9111  133.0935  157.7562 O.2     1  UNL1       -0.2523
     16 N         143.9236  132.1413  155.5499 N.am    1  UNL1       -0.2640
     17 C         144.6480  130.8291  155.6074 C.3     1  UNL1        0.0950
     18 C         144.2542  130.0290  154.4012 C.3     1  UNL1        0.0233
     19 C         143.2865  130.8468  153.5982 C.3     1  UNL1        0.0233
     20 C         143.0822  132.1522  154.3081 C.3     1  UNL1        0.0950
     21 C         143.3345  135.6169  157.3728 C.3     1  UNL1        0.1165
     22 C         142.5463  136.8785  157.1810 C.3     1  UNL1        0.1150
     23 C         137.4810  139.3393  161.6787 C.3     1  UNL1        0.1007
     24 C         137.9439  140.0061  162.9401 C.ar    1  UNL1        0.0129
     25 C         137.5177  141.3581  163.4302 C.ar    1  UNL1        0.0176
     26 C         138.2247  141.6256  164.7258 C.ar    1  UNL1        0.0799
     27 N         139.0879  140.4388  165.0364 N.ar    1  UNL1       -0.3038
     28 C         138.9144  139.4379  163.9328 C.ar    1  UNL1        0.0772
     29 C         139.9698  140.2808  166.2394 C.ar    1  UNL1        0.0640
     30 C         141.4597  140.2252  166.0751 C.ar    1  UNL1        0.0175
     31 C         142.3416  140.0671  167.2781 C.ar    1  UNL1        0.0053
     32 C         141.7336  139.9646  168.6454 C.ar    1  UNL1        0.0715
     33 C         140.2437  140.0202  168.8099 C.ar    1  UNL1        0.0053
     34 C         139.3618  140.1782  167.6068 C.ar    1  UNL1        0.0175
     35 C         142.6155  139.8065  169.8485 C.3     1  UNL1        0.4186
     36 F         143.4975  139.6485  171.0515 F       1  UNL1       -0.1659
     37 F         141.7827  138.6461  170.3064 F       1  UNL1       -0.1659
     38 F         143.4483  140.9671  169.3905 F       1  UNL1       -0.1659
@<TRIPOS>BOND
     1     8     9    2
     2     9     7    1
     3     7     1    1
     4     1     2    1
     5     2     3    1
     6     3     4    1
     7     4    23    1
     8    23    24    1
     9    24    25   ar
    10    25    26   ar
    11    26    27   ar
    12    27    29    1
    13    29    30   ar
    14    30    31   ar
    15    31    32   ar
    16    32    35    1
    17    35    36    1
    18    35    37    1
    19    35    38    1
    20    32    33   ar
    21    33    34   ar
    22    27    28   ar
    23     4     5    1
    24     5     6    1
    25     9    10   am
    26    10    11    1
    27    11    12    1
    28    12    13    1
    29    13    14   am
    30    14    15    2
    31    14    16   am
    32    16    17    1
    33    17    18    1
    34    18    19    1
    35    19    20    1
    36    13    21    1
    37    21    22    1
    38     6     1    1
    39    22    10    1
    40    28    24   ar
    41    20    16    1
    42    34    29   ar
@<TRIPOS>MOLECULE
*****
 38 42 0 0 0
SMALL
GASTEIGER

@<TRIPOS>ATOM
      1 C         143.9756  141.4689  160.3302 C.3     1  UNL1        0.0118
      2 C         143.4072  142.0533  159.0711 C.3     1  UNL1        0.0179
      3 C         142.7617  141.1593  158.0542 C.3     1  UNL1        0.0724
      4 N         142.6847  139.6810  158.2963 N.3     1  UNL1       -0.2689
      5 C         143.2532  139.0966  159.5554 C.3     1  UNL1        0.0724
      6 C         143.8986  139.9906  160.5723 C.3     1  UNL1        0.0179
      7 C         144.6211  142.3628  161.3472 C.3     1  UNL1        0.0854
      8 O         143.2497  144.4781  161.9755 O.2     1  UNL1       -0.2749
      9 C         143.7735  143.1175  162.3281 C.2     1  UNL1        0.2257
     10 N         143.4498  142.5115  163.6615 N.am    1  UNL1       -0.2760
     11 C         142.6022  143.2662  164.6423 C.3     1  UNL1        0.1150
     12 C         142.2784  142.6602  165.9757 C.3     1  UNL1        0.1165
     13 N         142.8023  141.2996  166.3283 N.am    1  UNL1       -0.2605
     14 C         142.4785  140.6936  167.6617 C.2     1  UNL1        0.3073
     15 O         143.0023  139.3330  168.0143 O.2     1  UNL1       -0.2523
     16 N         141.6309  141.4482  168.6426 N.am    1  UNL1       -0.2640
     17 C         141.2262  140.9732  170.0066 C.3     1  UNL1        0.0950
     18 C         140.3844  142.0418  170.6386 C.3     1  UNL1        0.0233
     19 C         140.2688  143.1773  169.6652 C.3     1  UNL1        0.0233
     20 C         141.0392  142.8104  168.4316 C.3     1  UNL1        0.0950
     21 C         143.6499  140.5449  165.3474 C.3     1  UNL1        0.1165
     22 C         143.9736  141.1509  164.0141 C.3     1  UNL1        0.1150
     23 C         142.0392  138.7871  157.2793 C.3     1  UNL1        0.1007
     24 C         142.8029  137.6312  156.7044 C.ar    1  UNL1        0.0129
     25 C         143.8078  137.7037  155.5930 C.ar    1  UNL1        0.0176
     26 C         144.3218  136.3171  155.3417 C.ar    1  UNL1        0.0799
     27 N         143.6346  135.3876  156.2977 N.ar    1  UNL1       -0.3038
     28 C         142.6959  136.1997  157.1398 C.ar    1  UNL1        0.0772
     29 C         143.8486  133.9061  156.3945 C.ar    1  UNL1        0.0640
     30 C         143.5000  133.0207  155.2350 C.ar    1  UNL1        0.0175
     31 C         143.7140  131.5392  155.3318 C.ar    1  UNL1        0.0053
     32 C         144.2766  130.9432  156.5880 C.ar    1  UNL1        0.0715
     33 C         144.6252  131.8286  157.7475 C.ar    1  UNL1        0.0053
     34 C         144.4112  133.3101  157.6508 C.ar    1  UNL1        0.0175
     35 C         144.4905  129.4617  156.6848 C.3     1  UNL1        0.4186
     36 F         144.7046  127.9802  156.7815 F       1  UNL1       -0.1659
     37 F         143.6253  129.4167  157.9093 F       1  UNL1       -0.1659
     38 F         145.3558  129.5066  155.4603 F       1  UNL1       -0.1659
@<TRIPOS>BOND
     1     8     9    2
     2     9     7    1
     3     7     1    1
     4     1     2    1
     5     2     3    1
     6     3     4    1
     7     4    23    1
     8    23    24    1
     9    24    25   ar
    10    25    26   ar
    11    26    27   ar
    12    27    29    1
    13    29    30   ar
    14    30    31   ar
    15    31    32   ar
    16    32    35    1
    17    35    36    1
    18    35    37    1
    19    35    38    1
    20    32    33   ar
    21    33    34   ar
    22    27    28   ar
    23     4     5    1
    24     5     6    1
    25     9    10   am
    26    10    11    1
    27    11    12    1
    28    12    13    1
    29    13    14   am
    30    14    15    2
    31    14    16   am
    32    16    17    1
    33    17    18    1
    34    18    19    1
    35    19    20    1
    36    13    21    1
    37    21    22    1
    38     6     1    1
    39    22    10    1
    40    28    24   ar
    41    20    16    1
    42    34    29   ar
@<TRIPOS>MOLECULE
*****
 38 42 0 0 0
SMALL
GASTEIGER

@<TRIPOS>ATOM
      1 C         141.5482  138.3699  158.8928 C.3     1  UNL1        0.0118
      2 C         140.1380  138.6969  158.5001 C.3     1  UNL1        0.0179
      3 C         139.0612  138.7458  159.5431 C.3     1  UNL1        0.0724
      4 N         139.3946  138.4677  160.9789 N.3     1  UNL1       -0.2689
      5 C         140.8048  138.1407  161.3717 C.3     1  UNL1        0.0724
      6 C         141.8816  138.0918  160.3286 C.3     1  UNL1        0.0179
      7 C         142.6252  138.3210  157.8498 C.3     1  UNL1        0.0854
      8 O         141.7091  138.4390  155.4214 O.2     1  UNL1       -0.2749
      9 C         142.3598  137.6632  156.5281 C.2     1  UNL1        0.2257
     10 N         142.7452  136.2295  156.3130 N.am    1  UNL1       -0.2760
     11 C         142.4798  135.5718  154.9913 C.3     1  UNL1        0.1150
     12 C         142.8652  134.1382  154.7763 C.3     1  UNL1        0.1165
     13 N         143.5159  133.3624  155.8830 N.am    1  UNL1       -0.2605
     14 C         143.9012  131.9287  155.6679 C.2     1  UNL1        0.3073
     15 O         144.5519  131.1529  156.7746 O.2     1  UNL1       -0.2523
     16 N         143.6359  131.2709  154.3462 N.am    1  UNL1       -0.2640
     17 C         143.9639  129.8523  153.9858 C.3     1  UNL1        0.0950
     18 C         143.5267  129.6209  152.5698 C.3     1  UNL1        0.0233
     19 C         142.9285  130.8965  152.0549 C.3     1  UNL1        0.0233
     20 C         142.9960  131.9163  153.1529 C.3     1  UNL1        0.0950
     21 C         143.7812  134.0201  157.2047 C.3     1  UNL1        0.1165
     22 C         143.3959  135.4537  157.4197 C.3     1  UNL1        0.1150
     23 C         138.3177  138.5166  162.0220 C.3     1  UNL1        0.1007
     24 C         138.3800  139.5399  163.1170 C.ar    1  UNL1        0.0129
     25 C         137.6261  140.8360  163.1564 C.ar    1  UNL1        0.0176
     26 C         137.9873  141.5439  164.4285 C.ar    1  UNL1        0.0799
     27 N         138.9646  140.6853  165.1754 N.ar    1  UNL1       -0.3038
     28 C         139.2073  139.4467  164.3648 C.ar    1  UNL1        0.0772
     29 C         139.5894  141.0084  166.5002 C.ar    1  UNL1        0.0640
     30 C         139.5426  140.0069  167.6158 C.ar    1  UNL1        0.0175
     31 C         140.1674  140.3301  168.9406 C.ar    1  UNL1        0.0053
     32 C         140.8391  141.6548  169.1498 C.ar    1  UNL1        0.0715
     33 C         140.8860  142.6564  168.0342 C.ar    1  UNL1        0.0053
     34 C         140.2611  142.3332  166.7094 C.ar    1  UNL1        0.0175
     35 C         141.4639  141.9779  170.4746 C.3     1  UNL1        0.4186
     36 F         142.0887  142.3010  171.7994 F       1  UNL1       -0.1659
     37 F         141.9457  143.2889  169.9275 F       1  UNL1       -0.1659
     38 F         140.9821  140.6669  171.0217 F       1  UNL1       -0.1659
@<TRIPOS>BOND
     1     8     9    2
     2     9     7    1
     3     7     1    1
     4     1     2    1
     5     2     3    1
     6     3     4    1
     7     4    23    1
     8    23    24    1
     9    24    25   ar
    10    25    26   ar
    11    26    27   ar
    12    27    29    1
    13    29    30   ar
    14    30    31   ar
    15    31    32   ar
    16    32    35    1
    17    35    36    1
    18    35    37    1
    19    35    38    1
    20    32    33   ar
    21    33    34   ar
    22    27    28   ar
    23     4     5    1
    24     5     6    1
    25     9    10   am
    26    10    11    1
    27    11    12    1
    28    12    13    1
    29    13    14   am
    30    14    15    2
    31    14    16   am
    32    16    17    1
    33    17    18    1
    34    18    19    1
    35    19    20    1
    36    13    21    1
    37    21    22    1
    38     6     1    1
    39    22    10    1
    40    28    24   ar
    41    20    16    1
    42    34    29   ar
@<TRIPOS>MOLECULE
*****
 38 42 0 0 0
SMALL
GASTEIGER

@<TRIPOS>ATOM
      1 C         140.6338  138.6218  157.3763 C.3     1  UNL1        0.0118
      2 C         141.0661  138.3789  158.7919 C.3     1  UNL1        0.0179
      3 C         140.2714  138.9521  159.9276 C.3     1  UNL1        0.0724
      4 N         139.0444  139.7683  159.6476 N.3     1  UNL1       -0.2689
      5 C         138.6121  140.0112  158.2320 C.3     1  UNL1        0.0724
      6 C         139.4068  139.4380  157.0963 C.3     1  UNL1        0.0179
      7 C         141.4284  138.0486  156.2405 C.3     1  UNL1        0.0854
      8 O         139.8924  136.7309  154.6113 O.2     1  UNL1       -0.2749
      9 C         141.0102  136.7528  155.6113 C.2     1  UNL1        0.2257
     10 N         141.7098  135.4787  155.9822 N.am    1  UNL1       -0.2760
     11 C         141.2915  134.1829  155.3531 C.3     1  UNL1        0.1150
     12 C         141.9910  132.9089  155.7240 C.3     1  UNL1        0.1165
     13 N         143.1088  132.9308  156.7241 N.am    1  UNL1       -0.2605
     14 C         143.8083  131.6567  157.0950 C.2     1  UNL1        0.3073
     15 O         144.9261  131.6786  158.0950 O.2     1  UNL1       -0.2523
     16 N         143.3901  130.3609  156.4658 N.am    1  UNL1       -0.2640
     17 C         143.9931  129.0144  156.7364 C.3     1  UNL1        0.0950
     18 C         143.2711  128.0053  155.8935 C.3     1  UNL1        0.0233
     19 C         142.2219  128.7282  155.1019 C.3     1  UNL1        0.0233
     20 C         142.2954  130.1841  155.4557 C.3     1  UNL1        0.0950
     21 C         143.5270  134.2266  157.3532 C.3     1  UNL1        0.1165
     22 C         142.8275  135.5006  156.9823 C.3     1  UNL1        0.1150
     23 C         138.2497  140.3416  160.7834 C.3     1  UNL1        0.1007
     24 C         138.5140  139.8872  162.1883 C.ar    1  UNL1        0.0129
     25 C         138.4824  138.4694  162.6770 C.ar    1  UNL1        0.0176
     26 C         138.8052  138.4767  164.1418 C.ar    1  UNL1        0.0799
     27 N         139.0364  139.8991  164.5584 N.ar    1  UNL1       -0.3038
     28 C         138.8564  140.7708  163.3511 C.ar    1  UNL1        0.0772
     29 C         139.3861  140.3675  165.9398 C.ar    1  UNL1        0.0640
     30 C         140.1511  141.6439  166.1278 C.ar    1  UNL1        0.0175
     31 C         140.5008  142.1122  167.5092 C.ar    1  UNL1        0.0053
     32 C         140.0855  141.3042  168.7026 C.ar    1  UNL1        0.0715
     33 C         139.3205  140.0277  168.5148 C.ar    1  UNL1        0.0053
     34 C         138.9708  139.5593  167.1334 C.ar    1  UNL1        0.0175
     35 C         140.4352  141.7726  170.0840 C.3     1  UNL1        0.4186
     36 F         140.7849  142.2409  171.4655 F       1  UNL1       -0.1659
     37 F         140.9194  143.0753  169.5198 F       1  UNL1       -0.1659
     38 F         139.9511  140.4698  170.6484 F       1  UNL1       -0.1659
@<TRIPOS>BOND
     1     8     9    2
     2     9     7    1
     3     7     1    1
     4     1     2    1
     5     2     3    1
     6     3     4    1
     7     4    23    1
     8    23    24    1
     9    24    25   ar
    10    25    26   ar
    11    26    27   ar
    12    27    29    1
    13    29    30   ar
    14    30    31   ar
    15    31    32   ar
    16    32    35    1
    17    35    36    1
    18    35    37    1
    19    35    38    1
    20    32    33   ar
    21    33    34   ar
    22    27    28   ar
    23     4     5    1
    24     5     6    1
    25     9    10   am
    26    10    11    1
    27    11    12    1
    28    12    13    1
    29    13    14   am
    30    14    15    2
    31    14    16   am
    32    16    17    1
    33    17    18    1
    34    18    19    1
    35    19    20    1
    36    13    21    1
    37    21    22    1
    38     6     1    1
    39    22    10    1
    40    28    24   ar
    41    20    16    1
    42    34    29   ar
@<TRIPOS>MOLECULE
*****
 38 42 0 0 0
SMALL
GASTEIGER

@<TRIPOS>ATOM
      1 C         139.3904  143.0966  158.0529 C.3     1  UNL1        0.0118
      2 C         138.7635  142.4745  159.2653 C.3     1  UNL1        0.0179
      3 C         138.8616  143.1602  160.5957 C.3     1  UNL1        0.0724
      4 N         139.5867  144.4680  160.7138 N.3     1  UNL1       -0.2689
      5 C         140.2135  145.0901  159.5014 C.3     1  UNL1        0.0724
      6 C         140.1154  144.4044  158.1709 C.3     1  UNL1        0.0179
      7 C         139.2922  142.4109  156.7223 C.3     1  UNL1        0.0854
      8 O         137.5573  140.4788  156.8058 O.2     1  UNL1       -0.2749
      9 C         138.9745  140.9465  156.6549 C.2     1  UNL1        0.2257
     10 N         140.0741  139.9498  156.4365 N.am    1  UNL1       -0.2760
     11 C         139.7563  138.4854  156.3691 C.3     1  UNL1        0.1150
     12 C         140.8558  137.4887  156.1507 C.3     1  UNL1        0.1165
     13 N         142.2730  137.9565  155.9998 N.am    1  UNL1       -0.2605
     14 C         143.3726  136.9597  155.7814 C.2     1  UNL1        0.3073
     15 O         144.7898  137.4274  155.6305 O.2     1  UNL1       -0.2523
     16 N         143.0548  135.4953  155.7139 N.am    1  UNL1       -0.2640
     17 C         144.0436  134.3875  155.5018 C.3     1  UNL1        0.0950
     18 C         143.2925  133.0891  155.5036 C.3     1  UNL1        0.0233
     19 C         141.8394  133.3945  155.7168 C.3     1  UNL1        0.0233
     20 C         141.6926  134.8816  155.8468 C.3     1  UNL1        0.0950
     21 C         142.5907  139.4208  156.0672 C.3     1  UNL1        0.1165
     22 C         141.4913  140.4175  156.2856 C.3     1  UNL1        0.1150
     23 C         139.6848  145.1537  162.0443 C.3     1  UNL1        0.1007
     24 C         140.3386  144.4571  163.2007 C.ar    1  UNL1        0.0129
     25 C         141.8139  144.3685  163.4568 C.ar    1  UNL1        0.0176
     26 C         142.0190  143.5834  164.7183 C.ar    1  UNL1        0.0799
     27 N         140.6705  143.1867  165.2419 N.ar    1  UNL1       -0.3038
     28 C         139.6319  143.7266  164.3039 C.ar    1  UNL1        0.0772
     29 C         140.4068  142.3899  166.4851 C.ar    1  UNL1        0.0640
     30 C         140.5715  143.0267  167.8331 C.ar    1  UNL1        0.0175
     31 C         140.3078  142.2300  169.0763 C.ar    1  UNL1        0.0053
     32 C         139.8795  140.7963  168.9715 C.ar    1  UNL1        0.0715
     33 C         139.7148  140.1594  167.6235 C.ar    1  UNL1        0.0053
     34 C         139.9784  140.9562  166.3803 C.ar    1  UNL1        0.0175
     35 C         139.6158  139.9996  170.2147 C.3     1  UNL1        0.4186
     36 F         139.3520  139.2028  171.4580 F       1  UNL1       -0.1659
     37 F         141.0171  139.4664  170.1702 F       1  UNL1       -0.1659
     38 F         138.2144  140.5328  170.2593 F       1  UNL1       -0.1659
@<TRIPOS>BOND
     1     8     9    2
     2     9     7    1
     3     7     1    1
     4     1     2    1
     5     2     3    1
     6     3     4    1
     7     4    23    1
     8    23    24    1
     9    24    25   ar
    10    25    26   ar
    11    26    27   ar
    12    27    29    1
    13    29    30   ar
    14    30    31   ar
    15    31    32   ar
    16    32    35    1
    17    35    36    1
    18    35    37    1
    19    35    38    1
    20    32    33   ar
    21    33    34   ar
    22    27    28   ar
    23     4     5    1
    24     5     6    1
    25     9    10   am
    26    10    11    1
    27    11    12    1
    28    12    13    1
    29    13    14   am
    30    14    15    2
    31    14    16   am
    32    16    17    1
    33    17    18    1
    34    18    19    1
    35    19    20    1
    36    13    21    1
    37    21    22    1
    38     6     1    1
    39    22    10    1
    40    28    24   ar
    41    20    16    1
    42    34    29   ar
@<TRIPOS>MOLECULE
*****
 38 42 0 0 0
SMALL
GASTEIGER

@<TRIPOS>ATOM
      1 C         139.7116  139.1843  159.6347 C.3     1  UNL1        0.0118
      2 C         139.7969  138.6340  158.2420 C.3     1  UNL1        0.0179
      3 C         139.3141  139.4524  157.0814 C.3     1  UNL1        0.0724
      4 N         138.7459  140.8211  157.3135 N.3     1  UNL1       -0.2689
      5 C         138.6606  141.3714  158.7063 C.3     1  UNL1        0.0724
      6 C         139.1434  140.5530  159.8669 C.3     1  UNL1        0.0179
      7 C         140.1944  138.3659  160.7954 C.3     1  UNL1        0.0854
      8 O         138.0695  137.6864  162.1271 O.2     1  UNL1       -0.2749
      9 C         139.4147  138.3483  162.0767 C.2     1  UNL1        0.2257
     10 N         139.9800  138.9927  163.3076 N.am    1  UNL1       -0.2760
     11 C         139.2003  138.9751  164.5889 C.3     1  UNL1        0.1150
     12 C         139.7657  139.6195  165.8198 C.3     1  UNL1        0.1165
     13 N         141.1108  140.2814  165.7694 N.am    1  UNL1       -0.2605
     14 C         141.6762  140.9258  167.0004 C.2     1  UNL1        0.3073
     15 O         143.0213  141.5877  166.9500 O.2     1  UNL1       -0.2523
     16 N         140.8964  140.9082  168.2816 N.am    1  UNL1       -0.2640
     17 C         141.3305  141.5081  169.5861 C.3     1  UNL1        0.0950
     18 C         140.2480  141.2583  170.5941 C.3     1  UNL1        0.0233
     19 C         139.1450  140.5041  169.9125 C.3     1  UNL1        0.0233
     20 C         139.5457  140.2878  168.4833 C.3     1  UNL1        0.0950
     21 C         141.8905  140.2990  164.4881 C.3     1  UNL1        0.1165
     22 C         141.3251  139.6546  163.2573 C.3     1  UNL1        0.1150
     23 C         138.2631  141.6395  156.1528 C.3     1  UNL1        0.1007
     24 C         136.8535  141.4880  155.6630 C.ar    1  UNL1        0.0129
     25 C         136.3202  141.9730  154.3477 C.ar    1  UNL1        0.0176
     26 C         134.8668  141.6096  154.2743 C.ar    1  UNL1        0.0799
     27 N         134.5018  140.8998  155.5444 N.ar    1  UNL1       -0.3038
     28 C         135.7296  140.8247  156.4027 C.ar    1  UNL1        0.0772
     29 C         133.1468  140.3600  155.8946 C.ar    1  UNL1        0.0640
     30 C         133.0123  138.9720  156.4469 C.ar    1  UNL1        0.0175
     31 C         131.6573  138.4322  156.7972 C.ar    1  UNL1        0.0053
     32 C         130.4369  139.2804  156.5951 C.ar    1  UNL1        0.0715
     33 C         130.5714  140.6686  156.0429 C.ar    1  UNL1        0.0053
     34 C         131.9263  141.2083  155.6926 C.ar    1  UNL1        0.0175
     35 C         129.0820  138.7406  156.9454 C.3     1  UNL1        0.4186
     36 F         127.7269  138.2009  157.2957 F       1  UNL1       -0.1659
     37 F         129.5951  137.3416  156.7745 F       1  UNL1       -0.1659
     38 F         128.5687  140.1398  157.1163 F       1  UNL1       -0.1659
@<TRIPOS>BOND
     1     8     9    2
     2     9     7    1
     3     7     1    1
     4     1     2    1
     5     2     3    1
     6     3     4    1
     7     4    23    1
     8    23    24    1
     9    24    25   ar
    10    25    26   ar
    11    26    27   ar
    12    27    29    1
    13    29    30   ar
    14    30    31   ar
    15    31    32   ar
    16    32    35    1
    17    35    36    1
    18    35    37    1
    19    35    38    1
    20    32    33   ar
    21    33    34   ar
    22    27    28   ar
    23     4     5    1
    24     5     6    1
    25     9    10   am
    26    10    11    1
    27    11    12    1
    28    12    13    1
    29    13    14   am
    30    14    15    2
    31    14    16   am
    32    16    17    1
    33    17    18    1
    34    18    19    1
    35    19    20    1
    36    13    21    1
    37    21    22    1
    38     6     1    1
    39    22    10    1
    40    28    24   ar
    41    20    16    1
    42    34    29   ar
