@<TRIPOS>MOLECULE
*****
 34 38 0 0 0
SMALL
GASTEIGER

@<TRIPOS>ATOM
      1 N         140.2096  146.2211  162.4685 N.3     1  UNL1       -0.2985
      2 H         139.4355  146.8322  162.7290 H       1  UNL1        0.1232
      3 C         140.3207  145.1808  163.5434 C.3     1  UNL1        0.0543
      4 C         139.2163  144.7327  164.4542 C.3     1  UNL1        0.0160
      5 C         139.7688  143.6808  165.3698 C.3     1  UNL1        0.0055
      6 C         141.2145  143.4787  165.0248 C.3     1  UNL1        0.0202
      7 C         142.6055  143.4974  164.4638 C.3     1  UNL1        0.0057
      8 C         141.5556  144.4057  163.8960 C.3     1  UNL1        0.0185
      9 C         141.4761  142.4229  166.0576 C.ar    1  UNL1       -0.0228
     10 C         142.4162  141.2940  165.7548 C.ar    1  UNL1       -0.0043
     11 C         142.6778  140.2382  166.7876 C.ar    1  UNL1        0.0035
     12 C         141.9993  140.3113  168.1234 C.ar    1  UNL1        0.0714
     13 C         141.0591  141.4402  168.4263 C.ar    1  UNL1        0.0035
     14 C         140.7975  142.4960  167.3934 C.ar    1  UNL1       -0.0043
     15 C         142.2609  139.2554  169.1563 C.3     1  UNL1        0.4186
     16 F         142.5225  138.1996  170.1891 F       1  UNL1       -0.1659
     17 F         143.0919  138.4936  168.1670 F       1  UNL1       -0.1659
     18 F         141.4298  140.0173  170.1456 F       1  UNL1       -0.1659
     19 C         139.9750  145.8077  161.0459 C.3     1  UNL1        0.0694
     20 C         141.0756  145.1545  160.2634 C.3     1  UNL1        0.0292
     21 C         141.1250  143.6602  160.1425 C.3     1  UNL1        0.0666
     22 S         139.8600  142.8829  159.9290 S.3     1  UNL1       -0.0756
     23 C         138.5140  141.0650  163.0831 C.ar    1  UNL1        0.2029
     24 N         137.3611  141.9664  162.7540 N.ar    1  UNL1       -0.1250
     25 N         137.7250  142.7570  161.5324 N.ar    1  UNL1       -0.1220
     26 C         139.1028  142.3444  161.1065 C.ar    1  UNL1        0.1933
     27 N         139.5905  141.2986  162.0649 N.ar    1  UNL1       -0.2860
     28 C         140.9209  140.6078  162.0141 C.3     1  UNL1        0.1341
     29 C         138.7545  137.8192  162.8457 C.3     1  UNL1        0.0556
     30 C         138.6896  138.6076  164.1201 C.ar    1  UNL1        0.1001
     31 N         138.7239  138.0425  165.5093 N.ar    1  UNL1       -0.2085
     32 C         138.6345  139.1851  166.4768 C.ar    1  UNL1        0.2849
     33 O         138.5450  140.4564  165.6858 O.2     1  UNL1       -0.4283
     34 C         138.5791  140.0995  164.2293 C.ar    1  UNL1        0.1964
@<TRIPOS>BOND
     1    29    30    1
     2    30    31   ar
     3    31    32   ar
     4    32    33   ar
     5    33    34   ar
     6    34    23    1
     7    23    24   ar
     8    24    25   ar
     9    25    26   ar
    10    26    22    1
    11    22    21    1
    12    21    20    1
    13    20    19    1
    14    19     1    1
    15     3     1    1
    16     3     4    1
    17     4     5    1
    18     5     6    1
    19     6     9    1
    20     9    10   ar
    21    10    11   ar
    22    11    12   ar
    23    12    15    1
    24    15    16    1
    25    15    17    1
    26    15    18    1
    27    12    13   ar
    28    13    14   ar
    29     6     7    1
    30     7     8    1
    31    26    27   ar
    32    27    28    1
    33    34    30   ar
    34    27    23   ar
    35     8     3    1
    36     8     6    1
    37    14     9   ar
    38     1     2    1
@<TRIPOS>MOLECULE
*****
 34 38 0 0 0
SMALL
GASTEIGER

@<TRIPOS>ATOM
      1 N         138.5987  137.4018  162.8692 N.3     1  UNL1       -0.2985
      2 H         139.2389  136.7460  162.4215 H       1  UNL1        0.1232
      3 C         139.4105  138.2023  163.8441 C.3     1  UNL1        0.0543
      4 C         140.8825  138.4751  163.7509 C.3     1  UNL1        0.0160
      5 C         141.2745  139.3118  164.9325 C.3     1  UNL1        0.0055
      6 C         140.0447  139.5561  165.7560 C.3     1  UNL1        0.0202
      7 C         138.6731  139.6285  166.3587 C.3     1  UNL1        0.0057
      8 C         138.8927  138.8703  165.0833 C.3     1  UNL1        0.0185
      9 C         140.7235  140.3776  166.8116 C.ar    1  UNL1       -0.0228
     10 C         142.1258  140.8648  166.5965 C.ar    1  UNL1       -0.0043
     11 C         142.8045  141.6864  167.6521 C.ar    1  UNL1        0.0035
     12 C         142.0810  142.0208  168.9229 C.ar    1  UNL1        0.0714
     13 C         140.6787  141.5336  169.1380 C.ar    1  UNL1        0.0035
     14 C         139.9999  140.7120  168.0823 C.ar    1  UNL1       -0.0043
     15 C         142.7597  142.8423  169.9785 C.3     1  UNL1        0.4186
     16 F         143.4384  143.6639  171.0341 F       1  UNL1       -0.1659
     17 F         143.9227  141.8951  169.9679 F       1  UNL1       -0.1659
     18 F         141.5967  143.7896  169.9890 F       1  UNL1       -0.1659
     19 C         137.8500  138.0949  161.7696 C.3     1  UNL1        0.0694
     20 C         138.5856  138.9643  160.7934 C.3     1  UNL1        0.0292
     21 C         137.8273  139.9194  159.9201 C.3     1  UNL1        0.0666
     22 S         138.5096  141.1374  159.3716 S.3     1  UNL1       -0.0756
     23 C         140.4834  143.5062  161.7292 C.ar    1  UNL1        0.2029
     24 N         139.1248  144.1415  161.7512 N.ar    1  UNL1       -0.1250
     25 N         138.2200  143.3315  160.8707 N.ar    1  UNL1       -0.1220
     26 C         139.0195  142.1955  160.3045 C.ar    1  UNL1        0.1933
     27 N         140.4183  142.3035  160.8352 N.ar    1  UNL1       -0.2860
     28 C         141.5529  141.3723  160.5260 C.3     1  UNL1        0.1341
     29 C         140.8050  143.6758  164.9723 C.3     1  UNL1        0.0556
     30 C         141.8422  144.0668  163.9618 C.ar    1  UNL1        0.1001
     31 N         143.2096  144.6044  164.2645 N.ar    1  UNL1       -0.2085
     32 C         143.9067  144.8586  162.9610 C.ar    1  UNL1        0.2849
     33 O         142.9703  144.4782  161.8526 O.2     1  UNL1       -0.4283
     34 C         141.6944  143.9888  162.4711 C.ar    1  UNL1        0.1964
@<TRIPOS>BOND
     1    29    30    1
     2    30    31   ar
     3    31    32   ar
     4    32    33   ar
     5    33    34   ar
     6    34    23    1
     7    23    24   ar
     8    24    25   ar
     9    25    26   ar
    10    26    22    1
    11    22    21    1
    12    21    20    1
    13    20    19    1
    14    19     1    1
    15     3     1    1
    16     3     4    1
    17     4     5    1
    18     5     6    1
    19     6     9    1
    20     9    10   ar
    21    10    11   ar
    22    11    12   ar
    23    12    15    1
    24    15    16    1
    25    15    17    1
    26    15    18    1
    27    12    13   ar
    28    13    14   ar
    29     6     7    1
    30     7     8    1
    31    26    27   ar
    32    27    28    1
    33    34    30   ar
    34    27    23   ar
    35     8     3    1
    36     8     6    1
    37    14     9   ar
    38     1     2    1
@<TRIPOS>MOLECULE
*****
 34 38 0 0 0
SMALL
GASTEIGER

@<TRIPOS>ATOM
      1 N         137.2364  140.6020  161.7426 N.3     1  UNL1       -0.2985
      2 H         136.2382  140.7450  161.8960 H       1  UNL1        0.1232
      3 C         137.9302  140.9927  163.0139 C.3     1  UNL1        0.0543
      4 C         138.5191  142.3380  163.3194 C.3     1  UNL1        0.0160
      5 C         139.1097  142.2833  164.6971 C.3     1  UNL1        0.0055
      6 C         138.8859  140.9043  165.2431 C.3     1  UNL1        0.0202
      7 C         138.5228  139.4741  165.5127 C.3     1  UNL1        0.0057
      8 C         138.1569  140.1066  164.2027 C.3     1  UNL1        0.0185
      9 C         139.5525  141.1486  166.5644 C.ar    1  UNL1       -0.0228
     10 C         140.2955  142.4295  166.8041 C.ar    1  UNL1       -0.0043
     11 C         140.9620  142.6738  168.1254 C.ar    1  UNL1        0.0035
     12 C         140.8857  141.6373  169.2071 C.ar    1  UNL1        0.0714
     13 C         140.1427  140.3565  168.9674 C.ar    1  UNL1        0.0035
     14 C         139.4761  140.1121  167.6460 C.ar    1  UNL1       -0.0043
     15 C         141.5523  141.8817  170.5284 C.3     1  UNL1        0.4186
     16 F         142.2189  142.1260  171.8498 F       1  UNL1       -0.1659
     17 F         141.2413  140.4748  170.9455 F       1  UNL1       -0.1659
     18 F         141.8632  143.2886  170.1114 F       1  UNL1       -0.1659
     19 C         137.3962  139.2139  161.1971 C.3     1  UNL1        0.0694
     20 C         138.7651  138.6784  160.8979 C.3     1  UNL1        0.0292
     21 C         139.5020  137.8825  161.9339 C.3     1  UNL1        0.0666
     22 S         140.9891  138.0238  162.0705 S.3     1  UNL1       -0.0756
     23 C         142.3715  141.3841  163.4352 C.ar    1  UNL1        0.2029
     24 N         142.5331  140.4963  164.6334 N.ar    1  UNL1       -0.1250
     25 N         142.0349  139.1295  164.2680 N.ar    1  UNL1       -0.1220
     26 C         141.5654  139.1725  162.8440 C.ar    1  UNL1        0.1933
     27 N         141.7734  140.5660  162.3293 N.ar    1  UNL1       -0.2860
     28 C         141.4417  141.0554  160.9508 C.3     1  UNL1        0.1341
     29 C         144.8268  142.6444  161.6937 C.3     1  UNL1        0.0556
     30 C         143.8714  143.4146  162.5562 C.ar    1  UNL1        0.1001
     31 N         143.8768  144.8994  162.7697 N.ar    1  UNL1       -0.2085
     32 C         142.7516  145.2376  163.7021 C.ar    1  UNL1        0.2849
     33 O         142.0508  143.9620  164.0649 O.2     1  UNL1       -0.4283
     34 C         142.7428  142.8353  163.3567 C.ar    1  UNL1        0.1964
@<TRIPOS>BOND
     1    29    30    1
     2    30    31   ar
     3    31    32   ar
     4    32    33   ar
     5    33    34   ar
     6    34    23    1
     7    23    24   ar
     8    24    25   ar
     9    25    26   ar
    10    26    22    1
    11    22    21    1
    12    21    20    1
    13    20    19    1
    14    19     1    1
    15     3     1    1
    16     3     4    1
    17     4     5    1
    18     5     6    1
    19     6     9    1
    20     9    10   ar
    21    10    11   ar
    22    11    12   ar
    23    12    15    1
    24    15    16    1
    25    15    17    1
    26    15    18    1
    27    12    13   ar
    28    13    14   ar
    29     6     7    1
    30     7     8    1
    31    26    27   ar
    32    27    28    1
    33    34    30   ar
    34    27    23   ar
    35     8     3    1
    36     8     6    1
    37    14     9   ar
    38     1     2    1
@<TRIPOS>MOLECULE
*****
 34 38 0 0 0
SMALL
GASTEIGER

@<TRIPOS>ATOM
      1 N         137.1970  140.4710  162.1401 N.3     1  UNL1       -0.2985
      2 H         136.2190  140.3720  162.4122 H       1  UNL1        0.1232
      3 C         137.9967  140.5188  163.4083 C.3     1  UNL1        0.0543
      4 C         138.0445  141.6623  164.3779 C.3     1  UNL1        0.0160
      5 C         138.9663  141.2816  165.4983 C.3     1  UNL1        0.0055
      6 C         139.4882  139.9029  165.2212 C.3     1  UNL1        0.0202
      7 C         139.8323  138.5444  164.6864 C.3     1  UNL1        0.0057
      8 C         138.8889  139.4314  163.9294 C.3     1  UNL1        0.0185
      9 C         140.3380  139.8063  166.4534 C.ar    1  UNL1       -0.0228
     10 C         139.7401  140.0853  167.8006 C.ar    1  UNL1       -0.0043
     11 C         140.5900  139.9886  169.0328 C.ar    1  UNL1        0.0035
     12 C         142.0377  139.6131  168.9179 C.ar    1  UNL1        0.0714
     13 C         142.6356  139.3341  167.5708 C.ar    1  UNL1        0.0035
     14 C         141.7856  139.4307  166.3385 C.ar    1  UNL1       -0.0043
     15 C         142.8875  139.5165  170.1502 C.3     1  UNL1        0.4186
     16 F         143.7374  139.4198  171.3824 F       1  UNL1       -0.1659
     17 F         142.5345  138.0644  170.2798 F       1  UNL1       -0.1659
     18 F         143.2405  140.9685  170.0206 F       1  UNL1       -0.1659
     19 C         137.4723  139.4067  161.1195 C.3     1  UNL1        0.0694
     20 C         138.4308  139.6738  159.9970 C.3     1  UNL1        0.0292
     21 C         138.0169  140.5455  158.8487 C.3     1  UNL1        0.0666
     22 S         138.4906  141.9670  158.7774 S.3     1  UNL1       -0.0756
     23 C         140.5544  143.4506  161.7108 C.ar    1  UNL1        0.2029
     24 N         139.1702  143.9002  162.0738 N.ar    1  UNL1       -0.1250
     25 N         138.2286  143.3992  161.0192 N.ar    1  UNL1       -0.1220
     26 C         139.0309  142.6399  160.0043 C.ar    1  UNL1        0.1933
     27 N         140.4683  142.6717  160.4318 N.ar    1  UNL1       -0.2860
     28 C         141.6178  142.0361  159.7074 C.3     1  UNL1        0.1341
     29 C         142.3809  141.2387  163.2669 C.3     1  UNL1        0.0556
     30 C         142.6447  142.7140  163.2053 C.ar    1  UNL1        0.1001
     31 N         143.7944  143.4318  163.8481 N.ar    1  UNL1       -0.2085
     32 C         143.6653  144.8919  163.5302 C.ar    1  UNL1        0.2849
     33 O         142.4360  145.0767  162.6909 O.2     1  UNL1       -0.4283
     34 C         141.8052  143.7307  162.4900 C.ar    1  UNL1        0.1964
@<TRIPOS>BOND
     1    29    30    1
     2    30    31   ar
     3    31    32   ar
     4    32    33   ar
     5    33    34   ar
     6    34    23    1
     7    23    24   ar
     8    24    25   ar
     9    25    26   ar
    10    26    22    1
    11    22    21    1
    12    21    20    1
    13    20    19    1
    14    19     1    1
    15     3     1    1
    16     3     4    1
    17     4     5    1
    18     5     6    1
    19     6     9    1
    20     9    10   ar
    21    10    11   ar
    22    11    12   ar
    23    12    15    1
    24    15    16    1
    25    15    17    1
    26    15    18    1
    27    12    13   ar
    28    13    14   ar
    29     6     7    1
    30     7     8    1
    31    26    27   ar
    32    27    28    1
    33    34    30   ar
    34    27    23   ar
    35     8     3    1
    36     8     6    1
    37    14     9   ar
    38     1     2    1
@<TRIPOS>MOLECULE
*****
 34 38 0 0 0
SMALL
GASTEIGER

@<TRIPOS>ATOM
      1 N         139.2124  137.3773  162.5375 N.3     1  UNL1       -0.2985
      2 H         139.8820  137.2769  161.7746 H       1  UNL1        0.1232
      3 C         139.9242  138.0934  163.6469 C.3     1  UNL1        0.0543
      4 C         141.3187  137.8149  164.1241 C.3     1  UNL1        0.0160
      5 C         141.6226  138.7630  165.2459 C.3     1  UNL1        0.0055
      6 C         140.4160  139.6275  165.4621 C.3     1  UNL1        0.0202
      7 C         139.0877  140.3241  165.4428 C.3     1  UNL1        0.0057
      8 C         139.3662  139.2136  164.4738 C.3     1  UNL1        0.0185
      9 C         140.9976  140.4300  166.5880 C.ar    1  UNL1       -0.0228
     10 C         140.3405  141.7090  167.0151 C.ar    1  UNL1       -0.0043
     11 C         140.9222  142.5114  168.1410 C.ar    1  UNL1        0.0035
     12 C         142.1610  142.0350  168.8399 C.ar    1  UNL1        0.0714
     13 C         142.8182  140.7560  168.4127 C.ar    1  UNL1        0.0035
     14 C         142.2364  139.9535  167.2868 C.ar    1  UNL1       -0.0043
     15 C         142.7427  142.8375  169.9657 C.3     1  UNL1        0.4186
     16 F         143.3243  143.6399  171.0916 F       1  UNL1       -0.1659
     17 F         141.5489  143.7452  169.9355 F       1  UNL1       -0.1659
     18 F         143.9364  141.9297  169.9960 F       1  UNL1       -0.1659
     19 C         137.9655  137.9638  161.9448 C.3     1  UNL1        0.0694
     20 C         138.0573  139.1355  161.0127 C.3     1  UNL1        0.0292
     21 C         137.6065  140.4922  161.4668 C.3     1  UNL1        0.0666
     22 S         138.4460  141.6994  161.1705 S.3     1  UNL1       -0.0756
     23 C         141.7530  142.1547  163.1509 C.ar    1  UNL1        0.2029
     24 N         140.8608  143.1396  163.8464 N.ar    1  UNL1       -0.1250
     25 N         139.5134  143.0889  163.1893 N.ar    1  UNL1       -0.1220
     26 C         139.5729  142.0727  162.0875 C.ar    1  UNL1        0.1933
     27 N         140.9571  141.4953  162.0638 N.ar    1  UNL1       -0.2860
     28 C         141.4575  140.4433  161.1189 C.3     1  UNL1        0.1341
     29 C         143.9864  144.3752  164.0059 C.3     1  UNL1        0.0556
     30 C         144.2157  142.8985  163.8769 C.ar    1  UNL1        0.1001
     31 N         145.5119  142.1831  164.1183 N.ar    1  UNL1       -0.2085
     32 C         145.2863  140.7204  163.8745 C.ar    1  UNL1        0.2849
     33 O         143.8509  140.5317  163.4824 O.2     1  UNL1       -0.4283
     34 C         143.1891  141.8778  163.4839 C.ar    1  UNL1        0.1964
@<TRIPOS>BOND
     1    29    30    1
     2    30    31   ar
     3    31    32   ar
     4    32    33   ar
     5    33    34   ar
     6    34    23    1
     7    23    24   ar
     8    24    25   ar
     9    25    26   ar
    10    26    22    1
    11    22    21    1
    12    21    20    1
    13    20    19    1
    14    19     1    1
    15     3     1    1
    16     3     4    1
    17     4     5    1
    18     5     6    1
    19     6     9    1
    20     9    10   ar
    21    10    11   ar
    22    11    12   ar
    23    12    15    1
    24    15    16    1
    25    15    17    1
    26    15    18    1
    27    12    13   ar
    28    13    14   ar
    29     6     7    1
    30     7     8    1
    31    26    27   ar
    32    27    28    1
    33    34    30   ar
    34    27    23   ar
    35     8     3    1
    36     8     6    1
    37    14     9   ar
    38     1     2    1
@<TRIPOS>MOLECULE
*****
 34 38 0 0 0
SMALL
GASTEIGER

@<TRIPOS>ATOM
      1 N         143.4375  144.3130  162.0622 N.3     1  UNL1       -0.2985
      2 H         142.9325  145.1589  161.7980 H       1  UNL1        0.1232
      3 C         142.7615  143.7695  163.2860 C.3     1  UNL1        0.0543
      4 C         141.3947  144.1435  163.7777 C.3     1  UNL1        0.0160
      5 C         141.1221  143.3617  165.0285 C.3     1  UNL1        0.0055
      6 C         142.3205  142.5045  165.3098 C.3     1  UNL1        0.0202
      7 C         143.6333  141.7791  165.3304 C.3     1  UNL1        0.0057
      8 C         143.3337  142.7566  164.2328 C.3     1  UNL1        0.0185
      9 C         141.7736  141.8744  166.5563 C.ar    1  UNL1       -0.0228
     10 C         140.7614  142.6079  167.3854 C.ar    1  UNL1       -0.0043
     11 C         140.2144  141.9778  168.6319 C.ar    1  UNL1        0.0035
     12 C         140.6796  140.6141  169.0493 C.ar    1  UNL1        0.0714
     13 C         141.6918  139.8806  168.2201 C.ar    1  UNL1        0.0035
     14 C         142.2388  140.5108  166.9736 C.ar    1  UNL1       -0.0043
     15 C         140.1326  139.9840  170.2958 C.3     1  UNL1        0.4186
     16 F         139.5857  139.3538  171.5422 F       1  UNL1       -0.1659
     17 F         138.8400  140.7195  170.1004 F       1  UNL1       -0.1659
     18 F         141.4252  139.2484  170.4911 F       1  UNL1       -0.1659
     19 C         143.5441  143.4688  160.8269 C.3     1  UNL1        0.0694
     20 C         142.4886  143.5568  159.7648 C.3     1  UNL1        0.0292
     21 C         141.1172  144.0570  160.1099 C.3     1  UNL1        0.0666
     22 S         139.9166  143.1982  159.8432 S.3     1  UNL1       -0.0756
     23 C         138.5259  141.2644  162.9078 C.ar    1  UNL1        0.2029
     24 N         137.3749  142.1728  162.5916 N.ar    1  UNL1       -0.1250
     25 N         137.7558  143.0078  161.4052 N.ar    1  UNL1       -0.1220
     26 C         139.1422  142.6154  160.9880 C.ar    1  UNL1        0.1933
     27 N         139.6181  141.5379  161.9167 N.ar    1  UNL1       -0.2860
     28 C         140.9520  140.8540  161.8636 C.3     1  UNL1        0.1341
     29 C         138.5711  138.0199  162.5596 C.3     1  UNL1        0.0556
     30 C         138.5966  138.7676  163.8597 C.ar    1  UNL1        0.1001
     31 N         138.6474  138.1552  165.2281 N.ar    1  UNL1       -0.2085
     32 C         138.6580  139.2680  166.2338 C.ar    1  UNL1        0.2849
     33 O         138.6137  140.5681  165.4870 O.2     1  UNL1       -0.4283
     34 C         138.5758  140.2589  164.0197 C.ar    1  UNL1        0.1964
@<TRIPOS>BOND
     1    29    30    1
     2    30    31   ar
     3    31    32   ar
     4    32    33   ar
     5    33    34   ar
     6    34    23    1
     7    23    24   ar
     8    24    25   ar
     9    25    26   ar
    10    26    22    1
    11    22    21    1
    12    21    20    1
    13    20    19    1
    14    19     1    1
    15     3     1    1
    16     3     4    1
    17     4     5    1
    18     5     6    1
    19     6     9    1
    20     9    10   ar
    21    10    11   ar
    22    11    12   ar
    23    12    15    1
    24    15    16    1
    25    15    17    1
    26    15    18    1
    27    12    13   ar
    28    13    14   ar
    29     6     7    1
    30     7     8    1
    31    26    27   ar
    32    27    28    1
    33    34    30   ar
    34    27    23   ar
    35     8     3    1
    36     8     6    1
    37    14     9   ar
    38     1     2    1
@<TRIPOS>MOLECULE
*****
 34 38 0 0 0
SMALL
GASTEIGER

@<TRIPOS>ATOM
      1 N         141.6998  137.1515  161.9851 N.3     1  UNL1       -0.2985
      2 H         142.1275  136.2678  162.2619 H       1  UNL1        0.1232
      3 C         141.3619  137.8839  163.2498 C.3     1  UNL1        0.0543
      4 C         140.0808  138.6111  163.5321 C.3     1  UNL1        0.0160
      5 C         140.1730  139.1943  164.9110 C.3     1  UNL1        0.0055
      6 C         141.5112  138.8275  165.4809 C.3     1  UNL1        0.0202
      7 C         142.8903  138.3164  165.7754 C.3     1  UNL1        0.0057
      8 C         142.2460  138.0176  164.4542 C.3     1  UNL1        0.0185
      9 C         141.3150  139.5175  166.7983 C.ar    1  UNL1       -0.0228
     10 C         139.9531  140.0064  167.1935 C.ar    1  UNL1       -0.0043
     11 C         139.7570  140.6964  168.5108 C.ar    1  UNL1        0.0035
     12 C         140.9229  140.8976  169.4330 C.ar    1  UNL1        0.0714
     13 C         142.2848  140.4087  169.0378 C.ar    1  UNL1        0.0035
     14 C         142.4809  139.7186  167.7204 C.ar    1  UNL1       -0.0043
     15 C         140.7267  141.5876  170.7504 C.3     1  UNL1        0.4186
     16 F         140.5306  142.2776  172.0677 F       1  UNL1       -0.1659
     17 F         139.5623  142.3428  170.1814 F       1  UNL1       -0.1659
     18 F         141.8912  140.8323  171.3193 F       1  UNL1       -0.1659
     19 C         142.6162  137.7791  160.9770 C.3     1  UNL1        0.0694
     20 C         143.9265  138.3629  161.4154 C.3     1  UNL1        0.0292
     21 C         144.1552  139.8427  161.3272 C.3     1  UNL1        0.0666
     22 S         144.6269  140.6017  162.5320 S.3     1  UNL1       -0.0756
     23 C         141.6366  142.4751  164.1487 C.ar    1  UNL1        0.2029
     24 N         142.5982  142.4175  165.2983 N.ar    1  UNL1       -0.1250
     25 N         143.8355  141.7088  164.8327 N.ar    1  UNL1       -0.1220
     26 C         143.6385  141.3283  163.3951 C.ar    1  UNL1        0.1933
     27 N         142.2794  141.8019  162.9724 N.ar    1  UNL1       -0.2860
     28 C         141.6703  141.6321  161.6123 C.3     1  UNL1        0.1341
     29 C         140.8344  145.3873  162.9138 C.3     1  UNL1        0.0556
     30 C         139.9029  144.4353  163.6036 C.ar    1  UNL1        0.1001
     31 N         138.4390  144.6547  163.8470 N.ar    1  UNL1       -0.2085
     32 C         137.9032  143.4517  164.5650 C.ar    1  UNL1        0.2849
     33 O         139.0357  142.4888  164.7654 O.2     1  UNL1       -0.4283
     34 C         140.2716  143.0966  164.1712 C.ar    1  UNL1        0.1964
@<TRIPOS>BOND
     1    29    30    1
     2    30    31   ar
     3    31    32   ar
     4    32    33   ar
     5    33    34   ar
     6    34    23    1
     7    23    24   ar
     8    24    25   ar
     9    25    26   ar
    10    26    22    1
    11    22    21    1
    12    21    20    1
    13    20    19    1
    14    19     1    1
    15     3     1    1
    16     3     4    1
    17     4     5    1
    18     5     6    1
    19     6     9    1
    20     9    10   ar
    21    10    11   ar
    22    11    12   ar
    23    12    15    1
    24    15    16    1
    25    15    17    1
    26    15    18    1
    27    12    13   ar
    28    13    14   ar
    29     6     7    1
    30     7     8    1
    31    26    27   ar
    32    27    28    1
    33    34    30   ar
    34    27    23   ar
    35     8     3    1
    36     8     6    1
    37    14     9   ar
    38     1     2    1
@<TRIPOS>MOLECULE
*****
 34 38 0 0 0
SMALL
GASTEIGER

@<TRIPOS>ATOM
      1 N         139.3234  145.5341  161.4154 N.3     1  UNL1       -0.2985
      2 H         138.4584  145.1337  161.0521 H       1  UNL1        0.1232
      3 C         139.6662  144.7681  162.6587 C.3     1  UNL1        0.0543
      4 C         140.9754  144.8138  163.3896 C.3     1  UNL1        0.0160
      5 C         140.8783  143.8959  164.5719 C.3     1  UNL1        0.0055
      6 C         139.5093  143.2829  164.5719 C.3     1  UNL1        0.0202
      7 C         138.0989  142.8427  164.3133 C.3     1  UNL1        0.0057
      8 C         138.7602  143.8220  163.3894 C.3     1  UNL1        0.0185
      9 C         139.7071  142.4571  165.8083 C.ar    1  UNL1       -0.0228
     10 C         139.2371  141.0330  165.8423 C.ar    1  UNL1       -0.0043
     11 C         139.4349  140.2072  167.0787 C.ar    1  UNL1        0.0035
     12 C         140.1029  140.8054  168.2813 C.ar    1  UNL1        0.0714
     13 C         140.5729  142.2295  168.2474 C.ar    1  UNL1        0.0035
     14 C         140.3750  143.0553  167.0108 C.ar    1  UNL1       -0.0043
     15 C         140.3007  139.9796  169.5177 C.3     1  UNL1        0.4186
     16 F         140.4986  139.1537  170.7542 F       1  UNL1       -0.1659
     17 F         141.6314  139.5214  168.9988 F       1  UNL1       -0.1659
     18 F         138.9700  140.4377  170.0367 F       1  UNL1       -0.1659
     19 C         140.2929  145.5805  160.2718 C.3     1  UNL1        0.0694
     20 C         140.1308  144.6426  159.1125 C.3     1  UNL1        0.0292
     21 C         141.2364  143.6939  158.7551 C.3     1  UNL1        0.0666
     22 S         142.1957  143.2287  159.8102 S.3     1  UNL1       -0.0756
     23 C         141.7249  140.7910  162.7936 C.ar    1  UNL1        0.2029
     24 N         140.3686  140.7335  162.1556 N.ar    1  UNL1       -0.1250
     25 N         140.3799  141.6397  160.9603 N.ar    1  UNL1       -0.1220
     26 C         141.7432  142.2572  160.8596 C.ar    1  UNL1        0.1933
     27 N         142.5744  141.7327  161.9927 N.ar    1  UNL1       -0.2860
     28 C         144.0042  142.0875  162.2752 C.3     1  UNL1        0.1341
     29 C         141.5293  137.5627  163.2292 C.3     1  UNL1        0.0556
     30 C         142.0660  138.5549  164.2179 C.ar    1  UNL1        0.1001
     31 N         142.6071  138.2374  165.5805 N.ar    1  UNL1       -0.2085
     32 C         143.0314  139.5250  166.2222 C.ar    1  UNL1        0.2849
     33 O         142.7525  140.6383  165.2564 O.2     1  UNL1       -0.4283
     34 C         142.1559  140.0388  164.0177 C.ar    1  UNL1        0.1964
@<TRIPOS>BOND
     1    29    30    1
     2    30    31   ar
     3    31    32   ar
     4    32    33   ar
     5    33    34   ar
     6    34    23    1
     7    23    24   ar
     8    24    25   ar
     9    25    26   ar
    10    26    22    1
    11    22    21    1
    12    21    20    1
    13    20    19    1
    14    19     1    1
    15     3     1    1
    16     3     4    1
    17     4     5    1
    18     5     6    1
    19     6     9    1
    20     9    10   ar
    21    10    11   ar
    22    11    12   ar
    23    12    15    1
    24    15    16    1
    25    15    17    1
    26    15    18    1
    27    12    13   ar
    28    13    14   ar
    29     6     7    1
    30     7     8    1
    31    26    27   ar
    32    27    28    1
    33    34    30   ar
    34    27    23   ar
    35     8     3    1
    36     8     6    1
    37    14     9   ar
    38     1     2    1
@<TRIPOS>MOLECULE
*****
 34 38 0 0 0
SMALL
GASTEIGER

@<TRIPOS>ATOM
      1 N         137.1179  140.1409  161.4178 N.3     1  UNL1       -0.2985
      2 H         136.6008  139.2804  161.5984 H       1  UNL1        0.1232
      3 C         137.6748  140.5959  162.7341 C.3     1  UNL1        0.0543
      4 C         137.5500  141.9729  163.3157 C.3     1  UNL1        0.0160
      5 C         138.2524  141.9817  164.6410 C.3     1  UNL1        0.0055
      6 C         138.8113  140.6102  164.8786 C.3     1  UNL1        0.0202
      7 C         139.2423  139.1740  164.8372 C.3     1  UNL1        0.0057
      8 C         138.4544  139.7536  163.7001 C.3     1  UNL1        0.0185
      9 C         139.4236  140.9193  166.2126 C.ar    1  UNL1       -0.0228
     10 C         139.3841  139.8981  167.3107 C.ar    1  UNL1       -0.0043
     11 C         139.9964  140.2072  168.6446 C.ar    1  UNL1        0.0035
     12 C         140.6483  141.5375  168.8806 C.ar    1  UNL1        0.0714
     13 C         140.6878  142.5587  167.7825 C.ar    1  UNL1        0.0035
     14 C         140.0754  142.2495  166.4485 C.ar    1  UNL1       -0.0043
     15 C         141.2606  141.8466  170.2146 C.3     1  UNL1        0.4186
     16 F         141.8729  142.1557  171.5486 F       1  UNL1       -0.1659
     17 F         140.8024  140.5158  170.7332 F       1  UNL1       -0.1659
     18 F         141.7188  143.1774  169.6959 F       1  UNL1       -0.1659
     19 C         138.0415  139.8582  160.2701 C.3     1  UNL1        0.0694
     20 C         138.2757  140.9040  159.2206 C.3     1  UNL1        0.0292
     21 C         138.5418  142.3242  159.6232 C.3     1  UNL1        0.0666
     22 S         139.9533  142.8100  159.7708 S.3     1  UNL1       -0.0756
     23 C         142.0745  141.6701  162.8148 C.ar    1  UNL1        0.2029
     24 N         141.5265  142.9736  163.3153 N.ar    1  UNL1       -0.1250
     25 N         140.6652  143.5593  162.2359 N.ar    1  UNL1       -0.1220
     26 C         140.6809  142.6177  161.0683 C.ar    1  UNL1        0.1933
     27 N         141.5519  141.4501  161.4261 N.ar    1  UNL1       -0.2860
     28 C         141.8482  140.2698  160.5491 C.3     1  UNL1        0.1341
     29 C         145.3365  141.7675  162.8098 C.3     1  UNL1        0.0556
     30 C         144.4847  140.7931  163.5681 C.ar    1  UNL1        0.1001
     31 N         144.9826  139.6924  164.4572 N.ar    1  UNL1       -0.2085
     32 C         143.7911  138.9674  165.0090 C.ar    1  UNL1        0.2849
     33 O         142.5567  139.6200  164.4609 O.2     1  UNL1       -0.4283
     34 C         142.9853  140.7483  163.5704 C.ar    1  UNL1        0.1964
@<TRIPOS>BOND
     1    29    30    1
     2    30    31   ar
     3    31    32   ar
     4    32    33   ar
     5    33    34   ar
     6    34    23    1
     7    23    24   ar
     8    24    25   ar
     9    25    26   ar
    10    26    22    1
    11    22    21    1
    12    21    20    1
    13    20    19    1
    14    19     1    1
    15     3     1    1
    16     3     4    1
    17     4     5    1
    18     5     6    1
    19     6     9    1
    20     9    10   ar
    21    10    11   ar
    22    11    12   ar
    23    12    15    1
    24    15    16    1
    25    15    17    1
    26    15    18    1
    27    12    13   ar
    28    13    14   ar
    29     6     7    1
    30     7     8    1
    31    26    27   ar
    32    27    28    1
    33    34    30   ar
    34    27    23   ar
    35     8     3    1
    36     8     6    1
    37    14     9   ar
    38     1     2    1
