@<TRIPOS>MOLECULE
*****
 39 44 0 0 0
SMALL
GASTEIGER

@<TRIPOS>ATOM
      1 C         138.3170  139.8826  159.4843 C.3     1  UNL1        0.0930
      2 C         139.4661  138.9185  159.4978 C.3     1  UNL1        0.0427
      3 C         139.9565  138.8016  160.9106 C.3     1  UNL1        0.0927
      4 N         139.1104  139.6934  161.7702 N.pl3   1  UNL1       -0.3033
      5 C         138.0972  140.3614  160.8887 C.3     1  UNL1        0.1104
      6 C         139.2526  139.8837  163.2513 C.ar    1  UNL1        0.0878
      7 C         138.8098  138.8028  164.1923 C.ar    1  UNL1        0.1543
      8 F         138.2249  137.5315  163.6522 F       1  UNL1       -0.2028
      9 C         138.9521  138.9931  165.6733 C.ar    1  UNL1        0.0356
     10 C         139.5371  140.2644  166.2133 C.ar    1  UNL1        0.0580
     11 C         139.6793  140.4547  167.6945 C.ar    1  UNL1        0.1996
     12 O         139.2365  139.3738  168.6355 O.2     1  UNL1       -0.2864
     13 C         140.2643  141.7260  168.2345 C.ar    1  UNL1        0.0701
     14 C         140.7071  142.8069  167.2934 C.ar    1  UNL1        0.0801
     15 N         140.5648  142.6166  165.8124 N.ar    1  UNL1       -0.3270
     16 C         139.9798  141.3453  165.2724 C.ar    1  UNL1        0.0750
     17 C         139.8376  141.1550  163.7913 C.ar    1  UNL1        0.0890
     18 CL        140.2804  142.2359  162.8503 Cl      1  UNL1       -0.0794
     19 C         140.4065  141.9163  169.7155 C.2     1  UNL1        0.0774
     20 O         141.7616  141.8428  170.3545 O.co2   1  UNL1       -0.5444
     21 O         139.1935  142.1803  170.5577 O.co2   1  UNL1       -0.5444
     22 C         141.0076  143.6975  164.8714 C.3     1  UNL1        0.0857
     23 C         140.6916  144.9037  164.0375 C.3     1  UNL1        0.0245
     24 C         142.0905  144.3636  164.0754 C.3     1  UNL1        0.0245
     25 O         138.7066  142.6098  158.2967 O.2     1  UNL1       -0.2741
     26 C         137.7213  141.6589  157.6843 C.2     1  UNL1        0.2339
     27 N         137.5265  140.2952  158.2781 N.am    1  UNL1       -0.3035
     28 H         136.8798  139.6711  157.8762 H       1  UNL1        0.1495
     29 C         136.9308  142.0716  156.4782 C.3     1  UNL1        0.1498
     30 S         136.1901  141.0412  155.6783 S.3     1  UNL1       -0.0659
     31 C         134.7953  140.6500  156.0673 C.2     1  UNL1        0.1902
     32 N         134.4217  139.6117  157.0834 N.2     1  UNL1       -0.2200
     33 C         132.9247  139.5484  157.1526 C.2     1  UNL1        0.0973
     34 C         131.9926  138.7100  157.9761 C.2     1  UNL1        0.0201
     35 C         130.5087  138.8708  157.8264 C.2     1  UNL1       -0.0026
     36 C         129.9571  139.8700  156.8531 C.2     1  UNL1       -0.0197
     37 C         130.8892  140.7084  156.0296 C.3     1  UNL1        0.0734
     38 C         132.3731  140.5476  156.1794 C.2     1  UNL1        0.0831
     39 N         133.5291  141.2284  155.5086 N.2     1  UNL1       -0.2237
@<TRIPOS>UNITY_ATOM_ATTR
20 1
charge -1
@<TRIPOS>BOND
     1    25    26    2
     2    26    29    1
     3    29    30    1
     4    30    31    1
     5    31    32    2
     6    32    33    1
     7    33    34    2
     8    34    35    1
     9    35    36    2
    10    36    37    1
    11    37    38    1
    12    38    39    2
    13    26    27   am
    14    27     1    1
    15     1     2    1
    16     2     3    1
    17     3     4    1
    18     4     6    1
    19     6     7   ar
    20     7     8    1
    21     7     9   ar
    22     9    10   ar
    23    10    11   ar
    24    11    12    2
    25    11    13   ar
    26    13    19    1
    27    19    20   ar
    28    19    21   ar
    29    13    14   ar
    30    14    15   ar
    31    15    22    1
    32    22    23    1
    33    23    24    1
    34    15    16   ar
    35    16    17   ar
    36    17    18    1
    37     4     5    1
    38    39    31    1
    39     5     1    1
    40    38    33    1
    41    17     6   ar
    42    16    10   ar
    43    24    22    1
    44    27    28    1
@<TRIPOS>MOLECULE
*****
 39 44 0 0 0
SMALL
GASTEIGER

@<TRIPOS>ATOM
      1 C         140.5838  138.9855  159.0828 C.3     1  UNL1        0.0930
      2 C         140.1203  140.4113  159.0319 C.3     1  UNL1        0.0427
      3 C         139.7632  140.8327  160.4265 C.3     1  UNL1        0.0927
      4 N         140.0059  139.6675  161.3393 N.pl3   1  UNL1       -0.3033
      5 C         140.5131  138.5259  160.5089 C.3     1  UNL1        0.1104
      6 C         139.7810  139.6473  162.8223 C.ar    1  UNL1        0.0878
      7 C         138.6315  138.8731  163.3960 C.ar    1  UNL1        0.1543
      8 F         137.7069  138.1190  162.4869 F       1  UNL1       -0.2028
      9 C         138.4066  138.8530  164.8789 C.ar    1  UNL1        0.0356
     10 C         139.3312  139.6071  165.7880 C.ar    1  UNL1        0.0580
     11 C         139.1063  139.5869  167.2710 C.ar    1  UNL1        0.1996
     12 O         137.9568  138.8127  167.8447 O.2     1  UNL1       -0.2864
     13 C         140.0309  140.3410  168.1801 C.ar    1  UNL1        0.0701
     14 C         141.1804  141.1153  167.6062 C.ar    1  UNL1        0.0801
     15 N         141.4053  141.1354  166.1233 N.ar    1  UNL1       -0.3270
     16 C         140.4807  140.3813  165.2142 C.ar    1  UNL1        0.0750
     17 C         140.7056  140.4014  163.7314 C.ar    1  UNL1        0.0890
     18 CL        141.8551  141.1757  163.1575 Cl      1  UNL1       -0.0794
     19 C         139.8060  140.3209  169.6629 C.2     1  UNL1        0.0774
     20 O         140.6120  139.4009  170.5313 O.co2   1  UNL1       -0.5444
     21 O         138.7751  141.2208  170.2775 O.co2   1  UNL1       -0.5444
     22 C         142.5548  141.9096  165.5496 C.3     1  UNL1        0.0857
     23 C         143.1133  143.1870  164.9962 C.3     1  UNL1        0.0245
     24 C         143.9872  141.9732  165.1091 C.3     1  UNL1        0.0245
     25 O         143.5072  138.7747  158.4431 O.2     1  UNL1       -0.2741
     26 C         142.4999  138.0584  157.5932 C.2     1  UNL1        0.2339
     27 N         141.0382  138.1638  157.9131 N.am    1  UNL1       -0.3035
     28 H         140.3770  137.6937  157.3553 H       1  UNL1        0.1495
     29 C         142.9543  137.2367  156.4235 C.3     1  UNL1        0.1498
     30 S         142.1784  136.0195  156.0153 S.3     1  UNL1       -0.0659
     31 C         142.6811  134.6534  156.3773 C.2     1  UNL1        0.1902
     32 N         142.0485  133.3498  155.9896 N.2     1  UNL1       -0.2200
     33 C         142.8811  132.2418  156.5631 C.2     1  UNL1        0.0973
     34 C         142.7429  130.7493  156.5055 C.2     1  UNL1        0.0201
     35 C         143.7520  129.8756  157.1900 C.2     1  UNL1       -0.0026
     36 C         144.8992  130.4944  157.9322 C.2     1  UNL1       -0.0197
     37 C         145.0374  131.9869  157.9898 C.3     1  UNL1        0.0734
     38 C         144.0284  132.8606  157.3053 C.2     1  UNL1        0.0831
     39 N         143.9048  134.3511  157.1904 N.2     1  UNL1       -0.2237
@<TRIPOS>UNITY_ATOM_ATTR
20 1
charge -1
@<TRIPOS>BOND
     1    25    26    2
     2    26    29    1
     3    29    30    1
     4    30    31    1
     5    31    32    2
     6    32    33    1
     7    33    34    2
     8    34    35    1
     9    35    36    2
    10    36    37    1
    11    37    38    1
    12    38    39    2
    13    26    27   am
    14    27     1    1
    15     1     2    1
    16     2     3    1
    17     3     4    1
    18     4     6    1
    19     6     7   ar
    20     7     8    1
    21     7     9   ar
    22     9    10   ar
    23    10    11   ar
    24    11    12    2
    25    11    13   ar
    26    13    19    1
    27    19    20   ar
    28    19    21   ar
    29    13    14   ar
    30    14    15   ar
    31    15    22    1
    32    22    23    1
    33    23    24    1
    34    15    16   ar
    35    16    17   ar
    36    17    18    1
    37     4     5    1
    38    39    31    1
    39     5     1    1
    40    38    33    1
    41    17     6   ar
    42    16    10   ar
    43    24    22    1
    44    27    28    1
@<TRIPOS>MOLECULE
*****
 39 44 0 0 0
SMALL
GASTEIGER

@<TRIPOS>ATOM
      1 C         140.4879  138.6884  160.5028 C.3     1  UNL1        0.0930
      2 C         139.2169  138.0589  160.9912 C.3     1  UNL1        0.0427
      3 C         139.1109  138.3122  162.4658 C.3     1  UNL1        0.0927
      4 N         140.3164  139.0982  162.8889 N.pl3   1  UNL1       -0.3033
      5 C         141.1674  139.3307  161.6757 C.3     1  UNL1        0.1104
      6 C         140.6179  139.5692  164.2808 C.ar    1  UNL1        0.0878
      7 C         141.3285  138.6628  165.2418 C.ar    1  UNL1        0.1543
      8 F         141.7376  137.2855  164.8109 F       1  UNL1       -0.2028
      9 C         141.6301  139.1337  166.6336 C.ar    1  UNL1        0.0356
     10 C         141.2210  140.5110  167.0645 C.ar    1  UNL1        0.0580
     11 C         141.5225  140.9819  168.4564 C.ar    1  UNL1        0.1996
     12 O         142.2331  140.0756  169.4174 O.2     1  UNL1       -0.2864
     13 C         141.1135  142.3593  168.8873 C.ar    1  UNL1        0.0701
     14 C         140.4028  143.2657  167.9263 C.ar    1  UNL1        0.0801
     15 N         140.1013  142.7947  166.5344 N.ar    1  UNL1       -0.3270
     16 C         140.5104  141.4174  166.1035 C.ar    1  UNL1        0.0750
     17 C         140.2089  140.9465  164.7117 C.ar    1  UNL1        0.0890
     18 CL        139.4982  141.8529  163.7507 Cl      1  UNL1       -0.0794
     19 C         141.4150  142.8302  170.2791 C.2     1  UNL1        0.0774
     20 O         140.4341  142.5773  171.3855 O.co2   1  UNL1       -0.5444
     21 O         142.6974  143.5540  170.5647 O.co2   1  UNL1       -0.5444
     22 C         139.3907  143.7011  165.5735 C.3     1  UNL1        0.0857
     23 C         139.4191  144.8458  164.6045 C.3     1  UNL1        0.0245
     24 C         138.1316  144.1264  164.8780 C.3     1  UNL1        0.0245
     25 O         143.0153  137.2225  159.8219 O.2     1  UNL1       -0.2741
     26 C         142.2547  137.9445  158.7493 C.2     1  UNL1        0.2339
     27 N         140.9910  138.6774  159.0898 N.am    1  UNL1       -0.3035
     28 H         140.4918  139.1512  158.3858 H       1  UNL1        0.1495
     29 C         142.7578  137.9335  157.3362 C.3     1  UNL1        0.1498
     30 S         142.1701  136.9803  156.3382 S.3     1  UNL1       -0.0659
     31 C         142.4896  135.5170  156.4204 C.2     1  UNL1        0.1902
     32 N         141.7474  134.4123  155.7285 N.2     1  UNL1       -0.2200
     33 C         142.4064  133.1141  156.0895 C.2     1  UNL1        0.0973
     34 C         142.1083  131.6957  155.7032 C.2     1  UNL1        0.0201
     35 C         142.9597  130.5796  156.2319 C.2     1  UNL1       -0.0026
     36 C         144.1092  130.8820  157.1470 C.2     1  UNL1       -0.0197
     37 C         144.4072  132.3004  157.5332 C.3     1  UNL1        0.0734
     38 C         143.5558  133.4165  157.0045 C.2     1  UNL1        0.0831
     39 N         143.6073  134.9016  157.2091 N.2     1  UNL1       -0.2237
@<TRIPOS>UNITY_ATOM_ATTR
20 1
charge -1
@<TRIPOS>BOND
     1    25    26    2
     2    26    29    1
     3    29    30    1
     4    30    31    1
     5    31    32    2
     6    32    33    1
     7    33    34    2
     8    34    35    1
     9    35    36    2
    10    36    37    1
    11    37    38    1
    12    38    39    2
    13    26    27   am
    14    27     1    1
    15     1     2    1
    16     2     3    1
    17     3     4    1
    18     4     6    1
    19     6     7   ar
    20     7     8    1
    21     7     9   ar
    22     9    10   ar
    23    10    11   ar
    24    11    12    2
    25    11    13   ar
    26    13    19    1
    27    19    20   ar
    28    19    21   ar
    29    13    14   ar
    30    14    15   ar
    31    15    22    1
    32    22    23    1
    33    23    24    1
    34    15    16   ar
    35    16    17   ar
    36    17    18    1
    37     4     5    1
    38    39    31    1
    39     5     1    1
    40    38    33    1
    41    17     6   ar
    42    16    10   ar
    43    24    22    1
    44    27    28    1
@<TRIPOS>MOLECULE
*****
 39 44 0 0 0
SMALL
GASTEIGER

@<TRIPOS>ATOM
      1 C         143.1893  138.7105  160.1791 C.3     1  UNL1        0.0930
      2 C         144.0790  139.9121  160.3000 C.3     1  UNL1        0.0427
      3 C         144.0816  140.3442  161.7364 C.3     1  UNL1        0.0927
      4 N         143.1936  139.4097  162.5032 N.pl3   1  UNL1       -0.3033
      5 C         142.6421  138.4000  161.5408 C.3     1  UNL1        0.1104
      6 C         142.9073  139.4737  163.9743 C.ar    1  UNL1        0.0878
      7 C         143.9524  139.0446  164.9611 C.ar    1  UNL1        0.1543
      8 F         145.2837  138.5517  164.4769 F       1  UNL1       -0.2028
      9 C         143.6661  139.1086  166.4321 C.ar    1  UNL1        0.0356
     10 C         142.3347  139.6015  166.9163 C.ar    1  UNL1        0.0580
     11 C         142.0484  139.6655  168.3874 C.ar    1  UNL1        0.1996
     12 O         143.0935  139.2364  169.3742 O.2     1  UNL1       -0.2864
     13 C         140.7171  140.1584  168.8716 C.ar    1  UNL1        0.0701
     14 C         139.6720  140.5875  167.8848 C.ar    1  UNL1        0.0801
     15 N         139.9583  140.5235  166.4138 N.ar    1  UNL1       -0.3270
     16 C         141.2897  140.0306  165.9296 C.ar    1  UNL1        0.0750
     17 C         141.5760  139.9666  164.4586 C.ar    1  UNL1        0.0890
     18 CL        140.5309  140.3956  163.4717 Cl      1  UNL1       -0.0794
     19 C         140.4307  140.2224  170.3426 C.2     1  UNL1        0.0774
     20 O         141.2944  141.0593  171.2392 O.co2   1  UNL1       -0.5444
     21 O         139.2807  139.4494  170.9172 O.co2   1  UNL1       -0.5444
     22 C         138.9133  140.9525  165.4270 C.3     1  UNL1        0.0857
     23 C         138.1719  142.0427  164.7114 C.3     1  UNL1        0.0245
     24 C         137.8445  140.6056  164.4334 C.3     1  UNL1        0.0245
     25 O         140.6146  139.1747  158.7108 O.2     1  UNL1       -0.2741
     26 C         141.6106  138.1845  158.1838 C.2     1  UNL1        0.2339
     27 N         142.8979  137.9525  158.9179 N.am    1  UNL1       -0.3035
     28 H         143.5516  137.3026  158.5720 H       1  UNL1        0.1495
     29 C         141.3193  137.4265  156.9226 C.3     1  UNL1        0.1498
     30 S         142.4465  136.9703  156.0444 S.3     1  UNL1       -0.0659
     31 C         142.9887  135.5786  156.1822 C.2     1  UNL1        0.1902
     32 N         143.6772  135.0162  157.3903 N.2     1  UNL1       -0.2200
     33 C         144.0516  133.5950  157.0909 C.2     1  UNL1        0.0973
     34 C         144.7497  132.5477  157.9068 C.2     1  UNL1        0.0201
     35 C         144.9907  131.1843  157.3296 C.2     1  UNL1       -0.0026
     36 C         144.5336  130.8682  155.9364 C.2     1  UNL1       -0.0197
     37 C         143.8354  131.9155  155.1204 C.3     1  UNL1        0.0734
     38 C         143.5944  133.2789  155.6977 C.2     1  UNL1        0.0831
     39 N         142.9375  134.5049  155.1361 N.2     1  UNL1       -0.2237
@<TRIPOS>UNITY_ATOM_ATTR
20 1
charge -1
@<TRIPOS>BOND
     1    25    26    2
     2    26    29    1
     3    29    30    1
     4    30    31    1
     5    31    32    2
     6    32    33    1
     7    33    34    2
     8    34    35    1
     9    35    36    2
    10    36    37    1
    11    37    38    1
    12    38    39    2
    13    26    27   am
    14    27     1    1
    15     1     2    1
    16     2     3    1
    17     3     4    1
    18     4     6    1
    19     6     7   ar
    20     7     8    1
    21     7     9   ar
    22     9    10   ar
    23    10    11   ar
    24    11    12    2
    25    11    13   ar
    26    13    19    1
    27    19    20   ar
    28    19    21   ar
    29    13    14   ar
    30    14    15   ar
    31    15    22    1
    32    22    23    1
    33    23    24    1
    34    15    16   ar
    35    16    17   ar
    36    17    18    1
    37     4     5    1
    38    39    31    1
    39     5     1    1
    40    38    33    1
    41    17     6   ar
    42    16    10   ar
    43    24    22    1
    44    27    28    1
@<TRIPOS>MOLECULE
*****
 39 44 0 0 0
SMALL
GASTEIGER

@<TRIPOS>ATOM
      1 C         143.1445  140.0870  160.8936 C.3     1  UNL1        0.0930
      2 C         144.0722  139.0644  161.4800 C.3     1  UNL1        0.0427
      3 C         144.0550  139.2241  162.9714 C.3     1  UNL1        0.0927
      4 N         143.1167  140.3453  163.3067 N.pl3   1  UNL1       -0.3033
      5 C         142.5540  140.8786  162.0226 C.3     1  UNL1        0.1104
      6 C         142.7972  140.8454  164.6844 C.ar    1  UNL1        0.0878
      7 C         143.7566  141.7545  165.3935 C.ar    1  UNL1        0.1543
      8 F         145.0356  142.1635  164.7251 F       1  UNL1       -0.2028
      9 C         143.4371  142.2546  166.7711 C.ar    1  UNL1        0.0356
     10 C         142.1580  141.8456  167.4395 C.ar    1  UNL1        0.0580
     11 C         141.8385  142.3457  168.8172 C.ar    1  UNL1        0.1996
     12 O         142.7980  143.2548  169.5263 O.2     1  UNL1       -0.2864
     13 C         140.5595  141.9367  169.4856 C.ar    1  UNL1        0.0701
     14 C         139.6000  141.0275  168.7764 C.ar    1  UNL1        0.0801
     15 N         139.9196  140.5274  167.3988 N.ar    1  UNL1       -0.3270
     16 C         141.1986  140.9365  166.7304 C.ar    1  UNL1        0.0750
     17 C         141.5182  140.4364  165.3528 C.ar    1  UNL1        0.0890
     18 CL        140.5587  139.5272  164.6436 Cl      1  UNL1       -0.0794
     19 C         140.2399  142.4367  170.8632 C.2     1  UNL1        0.0774
     20 O         140.7946  141.7308  172.0648 O.co2   1  UNL1       -0.5444
     21 O         139.3656  143.6429  171.0392 O.co2   1  UNL1       -0.5444
     22 C         138.9601  139.6183  166.6897 C.3     1  UNL1        0.0857
     23 C         137.8988  139.4050  165.6513 C.3     1  UNL1        0.0245
     24 C         138.3595  138.2570  166.4997 C.3     1  UNL1        0.0245
     25 O         140.9126  138.5677  159.5858 O.2     1  UNL1       -0.2741
     26 C         141.7418  139.5238  158.7805 C.2     1  UNL1        0.2339
     27 N         142.8577  140.2835  159.4344 N.am    1  UNL1       -0.3035
     28 H         143.4020  140.9110  158.9059 H       1  UNL1        0.1495
     29 C         141.4550  139.7203  157.3213 C.3     1  UNL1        0.1498
     30 S         142.2696  138.9937  156.2924 S.3     1  UNL1       -0.0659
     31 C         142.3421  137.4957  156.3143 C.2     1  UNL1        0.1902
     32 N         143.2305  136.6687  157.1956 N.2     1  UNL1       -0.2200
     33 C         142.9764  135.2235  156.8846 C.2     1  UNL1        0.0973
     34 C         143.5620  133.9593  157.4403 C.2     1  UNL1        0.0201
     35 C         143.1020  132.6287  156.9224 C.2     1  UNL1       -0.0026
     36 C         142.0565  132.5625  155.8489 C.2     1  UNL1       -0.0197
     37 C         141.4710  133.8268  155.2932 C.3     1  UNL1        0.0734
     38 C         141.9309  135.1573  155.8111 C.2     1  UNL1        0.0831
     39 N         141.5389  136.5616  155.4586 N.2     1  UNL1       -0.2237
@<TRIPOS>UNITY_ATOM_ATTR
20 1
charge -1
@<TRIPOS>BOND
     1    25    26    2
     2    26    29    1
     3    29    30    1
     4    30    31    1
     5    31    32    2
     6    32    33    1
     7    33    34    2
     8    34    35    1
     9    35    36    2
    10    36    37    1
    11    37    38    1
    12    38    39    2
    13    26    27   am
    14    27     1    1
    15     1     2    1
    16     2     3    1
    17     3     4    1
    18     4     6    1
    19     6     7   ar
    20     7     8    1
    21     7     9   ar
    22     9    10   ar
    23    10    11   ar
    24    11    12    2
    25    11    13   ar
    26    13    19    1
    27    19    20   ar
    28    19    21   ar
    29    13    14   ar
    30    14    15   ar
    31    15    22    1
    32    22    23    1
    33    23    24    1
    34    15    16   ar
    35    16    17   ar
    36    17    18    1
    37     4     5    1
    38    39    31    1
    39     5     1    1
    40    38    33    1
    41    17     6   ar
    42    16    10   ar
    43    24    22    1
    44    27    28    1
@<TRIPOS>MOLECULE
*****
 39 44 0 0 0
SMALL
GASTEIGER

@<TRIPOS>ATOM
      1 C         143.4734  140.3695  160.4258 C.3     1  UNL1        0.0930
      2 C         143.1878  141.8260  160.2088 C.3     1  UNL1        0.0427
      3 C         142.9355  142.4535  161.5477 C.3     1  UNL1        0.0927
      4 N         143.0652  141.3848  162.5922 N.pl3   1  UNL1       -0.3033
      5 C         143.3976  140.0968  161.8988 C.3     1  UNL1        0.1104
      6 C         142.8927  141.5712  164.0706 C.ar    1  UNL1        0.0878
      7 C         143.8990  142.3660  164.8487 C.ar    1  UNL1        0.1543
      8 F         145.0779  142.9744  164.1486 F       1  UNL1       -0.2028
      9 C         143.7265  142.5525  166.3270 C.ar    1  UNL1        0.0356
     10 C         142.5477  141.9441  167.0272 C.ar    1  UNL1        0.0580
     11 C         142.3752  142.1306  168.5056 C.ar    1  UNL1        0.1996
     12 O         143.3815  142.9254  169.2837 O.2     1  UNL1       -0.2864
     13 C         141.1964  141.5222  169.2058 C.ar    1  UNL1        0.0701
     14 C         140.1900  140.7274  168.4275 C.ar    1  UNL1        0.0801
     15 N         140.3625  140.5409  166.9492 N.ar    1  UNL1       -0.3270
     16 C         141.5414  141.1493  166.2491 C.ar    1  UNL1        0.0750
     17 C         141.7139  140.9629  164.7708 C.ar    1  UNL1        0.0890
     18 CL        140.7075  140.1680  163.9925 Cl      1  UNL1       -0.0794
     19 C         141.0239  141.7086  170.6841 C.2     1  UNL1        0.0774
     20 O         141.8981  140.9551  171.6421 O.co2   1  UNL1       -0.5444
     21 O         139.9771  142.6487  171.2044 O.co2   1  UNL1       -0.5444
     22 C         139.3562  139.7462  166.1711 C.3     1  UNL1        0.0857
     23 C         138.0561  139.6693  165.4268 C.3     1  UNL1        0.0245
     24 C         138.9132  138.4464  165.5676 C.3     1  UNL1        0.0245
     25 O         141.3944  139.6731  158.3781 O.2     1  UNL1       -0.2741
     26 C         142.7413  139.0143  158.3335 C.2     1  UNL1        0.2339
     27 N         143.7808  139.3625  159.3574 N.am    1  UNL1       -0.3035
     28 H         144.6648  138.9302  159.3281 H       1  UNL1        0.1495
     29 C         143.0488  138.0074  157.2651 C.3     1  UNL1        0.1498
     30 S         142.1151  136.8577  157.0271 S.3     1  UNL1       -0.0659
     31 C         142.6637  135.5057  156.6790 C.2     1  UNL1        0.1902
     32 N         142.3854  134.7386  155.4204 N.2     1  UNL1       -0.2200
     33 C         143.1366  133.4423  155.4919 C.2     1  UNL1        0.0973
     34 C         143.2403  132.2885  154.5391 C.2     1  UNL1        0.0201
     35 C         144.0868  131.1006  154.8891 C.2     1  UNL1       -0.0026
     36 C         144.8295  131.0665  156.1918 C.2     1  UNL1       -0.0197
     37 C         144.7258  132.2204  157.1446 C.3     1  UNL1        0.0734
     38 C         143.8793  133.4082  156.7947 C.2     1  UNL1        0.0831
     39 N         143.5871  134.6835  157.5283 N.2     1  UNL1       -0.2237
@<TRIPOS>UNITY_ATOM_ATTR
20 1
charge -1
@<TRIPOS>BOND
     1    25    26    2
     2    26    29    1
     3    29    30    1
     4    30    31    1
     5    31    32    2
     6    32    33    1
     7    33    34    2
     8    34    35    1
     9    35    36    2
    10    36    37    1
    11    37    38    1
    12    38    39    2
    13    26    27   am
    14    27     1    1
    15     1     2    1
    16     2     3    1
    17     3     4    1
    18     4     6    1
    19     6     7   ar
    20     7     8    1
    21     7     9   ar
    22     9    10   ar
    23    10    11   ar
    24    11    12    2
    25    11    13   ar
    26    13    19    1
    27    19    20   ar
    28    19    21   ar
    29    13    14   ar
    30    14    15   ar
    31    15    22    1
    32    22    23    1
    33    23    24    1
    34    15    16   ar
    35    16    17   ar
    36    17    18    1
    37     4     5    1
    38    39    31    1
    39     5     1    1
    40    38    33    1
    41    17     6   ar
    42    16    10   ar
    43    24    22    1
    44    27    28    1
@<TRIPOS>MOLECULE
*****
 39 44 0 0 0
SMALL
GASTEIGER

@<TRIPOS>ATOM
      1 C         143.7442  140.7924  160.6868 C.3     1  UNL1        0.0930
      2 C         144.0940  139.4151  161.1671 C.3     1  UNL1        0.0427
      3 C         143.8578  139.3665  162.6476 C.3     1  UNL1        0.0927
      4 N         143.3620  140.7137  163.0823 N.pl3   1  UNL1       -0.3033
      5 C         143.2918  141.5950  161.8705 C.3     1  UNL1        0.1104
      6 C         142.9999  141.1102  164.4830 C.ar    1  UNL1        0.0878
      7 C         143.9231  141.9860  165.2770 C.ar    1  UNL1        0.1543
      8 F         145.2085  142.4654  164.6704 F       1  UNL1       -0.2028
      9 C         143.5610  142.3824  166.6776 C.ar    1  UNL1        0.0356
     10 C         142.2757  141.9030  167.2842 C.ar    1  UNL1        0.0580
     11 C         141.9136  142.2995  168.6848 C.ar    1  UNL1        0.1996
     12 O         142.8368  143.1753  169.4788 O.2     1  UNL1       -0.2864
     13 C         140.6282  141.8201  169.2915 C.ar    1  UNL1        0.0701
     14 C         139.7049  140.9442  168.4974 C.ar    1  UNL1        0.0801
     15 N         140.0670  140.5478  167.0968 N.ar    1  UNL1       -0.3270
     16 C         141.3524  141.0272  166.4902 C.ar    1  UNL1        0.0750
     17 C         141.7145  140.6308  165.0896 C.ar    1  UNL1        0.0890
     18 CL        140.7912  139.7549  164.2956 Cl      1  UNL1       -0.0794
     19 C         140.2661  142.2165  170.6920 C.2     1  UNL1        0.0774
     20 O         140.6710  141.3477  171.8459 O.co2   1  UNL1       -0.5444
     21 O         139.4990  143.4818  170.9389 O.co2   1  UNL1       -0.5444
     22 C         139.1437  139.6720  166.3028 C.3     1  UNL1        0.0857
     23 C         138.6104  138.3097  165.9717 C.3     1  UNL1        0.0245
     24 C         138.0779  139.5172  165.2588 C.3     1  UNL1        0.0245
     25 O         141.7474  139.8590  158.6517 O.2     1  UNL1       -0.2741
     26 C         142.8331  140.8146  158.2538 C.2     1  UNL1        0.2339
     27 N         143.8315  141.2812  159.2714 N.am    1  UNL1       -0.3035
     28 H         144.5441  141.9084  159.0103 H       1  UNL1        0.1495
     29 C         142.9204  141.3034  156.8384 C.3     1  UNL1        0.1498
     30 S         143.7190  142.5319  156.5172 S.3     1  UNL1       -0.0659
     31 C         145.0759  142.4019  155.8913 C.2     1  UNL1        0.1902
     32 N         145.3906  142.5418  154.4314 N.2     1  UNL1       -0.2200
     33 C         146.8656  142.3355  154.2532 C.2     1  UNL1        0.0973
     34 C         147.7423  142.3566  153.0363 C.2     1  UNL1        0.0201
     35 C         149.2160  142.1104  153.1692 C.2     1  UNL1       -0.0026
     36 C         149.8129  141.8430  154.5191 C.2     1  UNL1       -0.0197
     37 C         148.9362  141.8219  155.7360 C.3     1  UNL1        0.0734
     38 C         147.4626  142.0682  155.6031 C.2     1  UNL1        0.0831
     39 N         146.3565  142.1092  156.6155 N.2     1  UNL1       -0.2237
@<TRIPOS>UNITY_ATOM_ATTR
20 1
charge -1
@<TRIPOS>BOND
     1    25    26    2
     2    26    29    1
     3    29    30    1
     4    30    31    1
     5    31    32    2
     6    32    33    1
     7    33    34    2
     8    34    35    1
     9    35    36    2
    10    36    37    1
    11    37    38    1
    12    38    39    2
    13    26    27   am
    14    27     1    1
    15     1     2    1
    16     2     3    1
    17     3     4    1
    18     4     6    1
    19     6     7   ar
    20     7     8    1
    21     7     9   ar
    22     9    10   ar
    23    10    11   ar
    24    11    12    2
    25    11    13   ar
    26    13    19    1
    27    19    20   ar
    28    19    21   ar
    29    13    14   ar
    30    14    15   ar
    31    15    22    1
    32    22    23    1
    33    23    24    1
    34    15    16   ar
    35    16    17   ar
    36    17    18    1
    37     4     5    1
    38    39    31    1
    39     5     1    1
    40    38    33    1
    41    17     6   ar
    42    16    10   ar
    43    24    22    1
    44    27    28    1
@<TRIPOS>MOLECULE
*****
 39 44 0 0 0
SMALL
GASTEIGER

@<TRIPOS>ATOM
      1 C         139.7572  143.0458  159.7564 C.3     1  UNL1        0.0930
      2 C         138.3898  142.4628  159.9575 C.3     1  UNL1        0.0427
      3 C         138.1949  142.2342  161.4271 C.3     1  UNL1        0.0927
      4 N         139.4418  142.6759  162.1343 N.pl3   1  UNL1       -0.3033
      5 C         140.4074  143.1774  161.1017 C.3     1  UNL1        0.1104
      6 C         139.6812  142.6249  163.6142 C.ar    1  UNL1        0.0878
      7 C         139.4300  143.8401  164.4569 C.ar    1  UNL1        0.1543
      8 F         138.9393  145.1063  163.8197 F       1  UNL1       -0.2028
      9 C         139.6694  143.7891  165.9367 C.ar    1  UNL1        0.0356
     10 C         140.1600  142.5229  166.5740 C.ar    1  UNL1        0.0580
     11 C         140.3994  142.4720  168.0539 C.ar    1  UNL1        0.1996
     12 O         140.1482  143.6872  168.8966 O.2     1  UNL1       -0.2864
     13 C         140.8901  141.2058  168.6911 C.ar    1  UNL1        0.0701
     14 C         141.1413  139.9906  167.8484 C.ar    1  UNL1        0.0801
     15 N         140.9019  140.0416  166.3685 N.ar    1  UNL1       -0.3270
     16 C         140.4113  141.3077  165.7313 C.ar    1  UNL1        0.0750
     17 C         140.1719  141.3587  164.2514 C.ar    1  UNL1        0.0890
     18 CL        140.4231  140.1435  163.4087 Cl      1  UNL1       -0.0794
     19 C         141.1295  141.1548  170.1710 C.2     1  UNL1        0.0774
     20 O         142.5149  141.3447  170.7136 O.co2   1  UNL1       -0.5444
     21 O         139.9834  140.9140  171.1083 O.co2   1  UNL1       -0.5444
     22 C         141.1532  138.8264  165.5259 C.3     1  UNL1        0.0857
     23 C         140.6404  137.6053  164.8215 C.3     1  UNL1        0.0245
     24 C         142.1010  137.9426  164.7707 C.3     1  UNL1        0.0245
     25 O         139.7897  145.9208  158.9001 O.2     1  UNL1       -0.2741
     26 C         140.3835  144.8671  158.0127 C.2     1  UNL1        0.2339
     27 N         140.3673  143.4296  158.4409 N.am    1  UNL1       -0.3035
     28 H         140.7570  142.7381  157.8586 H       1  UNL1        0.1495
     29 C         140.9936  145.2510  156.6973 C.3     1  UNL1        0.1498
     30 S         140.1123  145.6248  155.5424 S.3     1  UNL1       -0.0659
     31 C         139.8057  147.0675  155.2692 C.2     1  UNL1        0.1902
     32 N         140.2270  147.8442  154.0571 N.2     1  UNL1       -0.2200
     33 C         139.7056  149.2434  154.1989 C.2     1  UNL1        0.0973
     34 C         139.8119  150.4488  153.3125 C.2     1  UNL1        0.0201
     35 C         139.1745  151.7423  153.7257 C.2     1  UNL1       -0.0026
     36 C         138.4310  151.8304  155.0255 C.2     1  UNL1       -0.0197
     37 C         138.3248  150.6250  155.9120 C.3     1  UNL1        0.0734
     38 C         138.9621  149.3316  155.4987 C.2     1  UNL1        0.0831
     39 N         139.0240  147.9867  156.1602 N.2     1  UNL1       -0.2237
@<TRIPOS>UNITY_ATOM_ATTR
20 1
charge -1
@<TRIPOS>BOND
     1    25    26    2
     2    26    29    1
     3    29    30    1
     4    30    31    1
     5    31    32    2
     6    32    33    1
     7    33    34    2
     8    34    35    1
     9    35    36    2
    10    36    37    1
    11    37    38    1
    12    38    39    2
    13    26    27   am
    14    27     1    1
    15     1     2    1
    16     2     3    1
    17     3     4    1
    18     4     6    1
    19     6     7   ar
    20     7     8    1
    21     7     9   ar
    22     9    10   ar
    23    10    11   ar
    24    11    12    2
    25    11    13   ar
    26    13    19    1
    27    19    20   ar
    28    19    21   ar
    29    13    14   ar
    30    14    15   ar
    31    15    22    1
    32    22    23    1
    33    23    24    1
    34    15    16   ar
    35    16    17   ar
    36    17    18    1
    37     4     5    1
    38    39    31    1
    39     5     1    1
    40    38    33    1
    41    17     6   ar
    42    16    10   ar
    43    24    22    1
    44    27    28    1
@<TRIPOS>MOLECULE
*****
 39 44 0 0 0
SMALL
GASTEIGER

@<TRIPOS>ATOM
      1 C         142.0506  142.5583  160.1163 C.3     1  UNL1        0.0930
      2 C         141.3484  143.8413  160.4497 C.3     1  UNL1        0.0427
      3 C         141.3594  144.0017  161.9411 C.3     1  UNL1        0.0927
      4 N         142.0683  142.8180  162.5294 N.pl3   1  UNL1       -0.3033
      5 C         142.4955  141.9259  161.4016 C.3     1  UNL1        0.1104
      6 C         142.3080  142.5698  163.9892 C.ar    1  UNL1        0.0878
      7 C         143.3936  143.3144  164.7082 C.ar    1  UNL1        0.1543
      8 F         144.2395  144.3073  163.9675 F       1  UNL1       -0.2028
      9 C         143.6332  143.0662  166.1680 C.ar    1  UNL1        0.0356
     10 C         142.7873  142.0734  166.9087 C.ar    1  UNL1        0.0580
     11 C         143.0270  141.8252  168.3686 C.ar    1  UNL1        0.1996
     12 O         144.1125  142.5698  169.0876 O.2     1  UNL1       -0.2864
     13 C         142.1811  140.8323  169.1093 C.ar    1  UNL1        0.0701
     14 C         141.0955  140.0877  168.3902 C.ar    1  UNL1        0.0801
     15 N         140.8558  140.3359  166.9304 N.ar    1  UNL1       -0.3270
     16 C         141.7017  141.3287  166.1897 C.ar    1  UNL1        0.0750
     17 C         141.4621  141.5769  164.7300 C.ar    1  UNL1        0.0890
     18 CL        140.3765  140.8323  164.0109 Cl      1  UNL1       -0.0794
     19 C         142.4207  140.5841  170.5690 C.2     1  UNL1        0.0774
     20 O         143.4446  139.5763  171.0003 O.co2   1  UNL1       -0.5444
     21 O         141.6365  141.3438  171.5977 O.co2   1  UNL1       -0.5444
     22 C         139.7703  139.5912  166.2114 C.3     1  UNL1        0.0857
     23 C         139.3162  138.4006  165.4202 C.3     1  UNL1        0.0245
     24 C         138.3442  139.4921  165.7573 C.3     1  UNL1        0.0245
     25 O         144.7246  142.8535  158.7886 O.2     1  UNL1       -0.2741
     26 C         143.6064  142.1526  158.0755 C.2     1  UNL1        0.2339
     27 N         142.2694  142.0050  158.7394 N.am    1  UNL1       -0.3035
     28 H         141.5355  141.5450  158.2714 H       1  UNL1        0.1495
     29 C         143.8251  141.5992  156.6986 C.3     1  UNL1        0.1498
     30 S         144.2947  142.4994  155.5944 S.3     1  UNL1       -0.0659
     31 C         145.7424  142.5129  155.2022 C.2     1  UNL1        0.1902
     32 N         146.3454  143.3093  154.0832 N.2     1  UNL1       -0.2200
     33 C         147.8170  143.0210  154.0495 C.2     1  UNL1        0.0973
     34 C         148.9175  143.5200  153.1608 C.2     1  UNL1        0.0201
     35 C         150.3246  143.0443  153.3702 C.2     1  UNL1       -0.0026
     36 C         150.6312  142.0697  154.4685 C.2     1  UNL1       -0.0197
     37 C         149.5307  141.5707  155.3572 C.3     1  UNL1        0.0734
     38 C         148.1236  142.0464  155.1477 C.2     1  UNL1        0.0831
     39 N         146.8414  141.7324  155.8601 N.2     1  UNL1       -0.2237
@<TRIPOS>UNITY_ATOM_ATTR
20 1
charge -1
@<TRIPOS>BOND
     1    25    26    2
     2    26    29    1
     3    29    30    1
     4    30    31    1
     5    31    32    2
     6    32    33    1
     7    33    34    2
     8    34    35    1
     9    35    36    2
    10    36    37    1
    11    37    38    1
    12    38    39    2
    13    26    27   am
    14    27     1    1
    15     1     2    1
    16     2     3    1
    17     3     4    1
    18     4     6    1
    19     6     7   ar
    20     7     8    1
    21     7     9   ar
    22     9    10   ar
    23    10    11   ar
    24    11    12    2
    25    11    13   ar
    26    13    19    1
    27    19    20   ar
    28    19    21   ar
    29    13    14   ar
    30    14    15   ar
    31    15    22    1
    32    22    23    1
    33    23    24    1
    34    15    16   ar
    35    16    17   ar
    36    17    18    1
    37     4     5    1
    38    39    31    1
    39     5     1    1
    40    38    33    1
    41    17     6   ar
    42    16    10   ar
    43    24    22    1
    44    27    28    1
