@<TRIPOS>MOLECULE
*****
 33 36 0 0 0
SMALL
GASTEIGER

@<TRIPOS>ATOM
      1 C         138.3454  138.8696  163.0657 C.ar    1  UNL1        0.0848
      2 C         138.9433  137.7157  163.8147 C.ar    1  UNL1        0.0102
      3 C         139.0509  137.7670  165.3100 C.ar    1  UNL1        0.0343
      4 C         138.5605  138.9721  166.0563 C.ar    1  UNL1        0.1299
      5 N         137.9626  140.1261  165.3074 N.ar    1  UNL1       -0.2160
      6 C         137.8551  140.0748  163.8121 C.ar    1  UNL1        0.1377
      7 N         139.3061  138.1407  160.7645 N.am    1  UNL1       -0.3252
      8 C         138.2379  138.8183  161.5705 C.2     1  UNL1        0.2455
      9 O         137.0621  139.4448  160.8812 O.2     1  UNL1       -0.2703
     10 H         139.2355  138.1070  159.7832 H       1  UNL1        0.1453
     11 H         140.0778  137.7295  161.2169 H       1  UNL1        0.1453
     12 N         138.6680  139.0234  167.5515 N.pl3   1  UNL1       -0.3184
     13 H         138.2472  138.3222  168.0997 H       1  UNL1        0.1482
     14 C         139.4167  140.1431  168.2117 C.3     1  UNL1        0.0844
     15 C         140.4807  140.8822  167.4556 C.3     1  UNL1        0.0209
     16 C         141.2294  142.0019  168.1158 C.3     1  UNL1        0.0018
     17 C         140.9140  142.3825  169.5320 C.3     1  UNL1        0.0015
     18 C         139.8499  141.6434  170.2881 C.3     1  UNL1        0.0172
     19 C         139.1013  140.5238  169.6280 C.3     1  UNL1        0.0689
     20 N         138.0373  139.7847  170.3839 N.3     1  UNL1       -0.3209
     21 H         137.6358  139.0618  169.7867 H       1  UNL1        0.1189
     22 H         137.3059  140.4369  170.6668 H       1  UNL1        0.1189
     23 N         137.2571  141.2288  163.0632 N.pl3   1  UNL1       -0.2993
     24 H         136.3942  141.1218  162.6014 H       1  UNL1        0.1534
     25 C         137.9739  142.5456  163.0177 C.2     1  UNL1        0.0531
     26 C         137.9620  143.4478  164.2160 C.2     1  UNL1        0.0125
     27 C         138.6787  144.7646  164.1706 C.2     1  UNL1        0.0008
     28 C         139.4076  145.1794  162.9269 C.2     1  UNL1       -0.0020
     29 C         139.4195  144.2772  161.7285 C.2     1  UNL1        0.0067
     30 C         140.0477  144.4166  160.3736 C.2     1  UNL1        0.0182
     31 C         139.7192  143.1858  159.5816 C.2     1  UNL1        0.0936
     32 N         138.8879  142.2858  160.4471 N.2     1  UNL1       -0.2607
     33 C         138.7027  142.9603  161.7740 C.3     1  UNL1        0.1609
@<TRIPOS>BOND
     1     7     8   am
     2     8     9    2
     3     8     1    1
     4     1     2   ar
     5     2     3   ar
     6     3     4   ar
     7     4    12    1
     8    14    12    1
     9    14    15    1
    10    15    16    1
    11    16    17    1
    12    17    18    1
    13    18    19    1
    14    19    20    1
    15     4     5   ar
    16     5     6   ar
    17     6    23    1
    18    23    25    1
    19    25    26    2
    20    26    27    1
    21    27    28    2
    22    28    29    1
    23    29    30    2
    24    30    31    1
    25    31    32    2
    26    32    33    1
    27     6     1   ar
    28    33    25    1
    29    19    14    1
    30    33    29    1
    31     7    10    1
    32     7    11    1
    33    12    13    1
    34    20    21    1
    35    20    22    1
    36    23    24    1
@<TRIPOS>MOLECULE
*****
 33 36 0 0 0
SMALL
GASTEIGER

@<TRIPOS>ATOM
      1 C         141.8392  140.9780  168.5668 C.ar    1  UNL1        0.0848
      2 C         140.6201  140.3185  169.1402 C.ar    1  UNL1        0.0102
      3 C         139.4598  139.9837  168.2504 C.ar    1  UNL1        0.0343
      4 C         139.5186  140.3084  166.7872 C.ar    1  UNL1        0.1299
      5 N         140.7378  140.9679  166.2137 N.ar    1  UNL1       -0.2160
      6 C         141.8980  141.3026  167.1035 C.ar    1  UNL1        0.1377
      7 N         143.4303  140.3487  170.5218 N.am    1  UNL1       -0.3252
      8 C         142.9994  141.3128  169.4566 C.2     1  UNL1        0.2455
      9 O         143.7288  142.6118  169.2811 O.2     1  UNL1       -0.2703
     10 H         144.1918  140.5685  171.1058 H       1  UNL1        0.1453
     11 H         142.9516  139.4962  170.6370 H       1  UNL1        0.1453
     12 N         138.3584  139.9736  165.8974 N.pl3   1  UNL1       -0.3184
     13 H         137.4390  140.1595  166.1964 H       1  UNL1        0.1482
     14 C         138.5989  139.3555  164.5520 C.3     1  UNL1        0.0844
     15 C         139.4874  138.1534  164.4269 C.3     1  UNL1        0.0209
     16 C         139.7279  137.5354  163.0814 C.3     1  UNL1        0.0018
     17 C         139.0800  138.1194  161.8611 C.3     1  UNL1        0.0015
     18 C         138.1915  139.3216  161.9863 C.3     1  UNL1        0.0172
     19 C         137.9510  139.9396  163.3316 C.3     1  UNL1        0.0689
     20 N         137.0626  141.1417  163.4569 N.3     1  UNL1       -0.3209
     21 H         137.0120  141.4266  164.4350 H       1  UNL1        0.1189
     22 H         136.1276  140.9098  163.1216 H       1  UNL1        0.1189
     23 N         143.1171  141.9621  166.5300 N.pl3   1  UNL1       -0.2993
     24 H         143.5636  142.6866  167.0249 H       1  UNL1        0.1534
     25 C         143.6559  141.5177  165.2025 C.2     1  UNL1        0.0531
     26 C         143.9543  140.0676  164.9616 C.2     1  UNL1        0.0125
     27 C         144.4930  139.6232  163.6342 C.2     1  UNL1        0.0008
     28 C         144.7335  140.6289  162.5475 C.2     1  UNL1       -0.0020
     29 C         144.4351  142.0790  162.7884 C.2     1  UNL1        0.0067
     30 C         144.5697  143.2902  161.9138 C.2     1  UNL1        0.0182
     31 C         144.1141  144.4831  162.7008 C.2     1  UNL1        0.0936
     32 N         143.6979  144.0093  164.0617 N.2     1  UNL1       -0.2607
     33 C         143.8963  142.5234  164.1159 C.3     1  UNL1        0.1609
@<TRIPOS>BOND
     1     7     8   am
     2     8     9    2
     3     8     1    1
     4     1     2   ar
     5     2     3   ar
     6     3     4   ar
     7     4    12    1
     8    14    12    1
     9    14    15    1
    10    15    16    1
    11    16    17    1
    12    17    18    1
    13    18    19    1
    14    19    20    1
    15     4     5   ar
    16     5     6   ar
    17     6    23    1
    18    23    25    1
    19    25    26    2
    20    26    27    1
    21    27    28    2
    22    28    29    1
    23    29    30    2
    24    30    31    1
    25    31    32    2
    26    32    33    1
    27     6     1   ar
    28    33    25    1
    29    19    14    1
    30    33    29    1
    31     7    10    1
    32     7    11    1
    33    12    13    1
    34    20    21    1
    35    20    22    1
    36    23    24    1
@<TRIPOS>MOLECULE
*****
 33 36 0 0 0
SMALL
GASTEIGER

@<TRIPOS>ATOM
      1 C         139.5366  138.5093  164.1158 C.ar    1  UNL1        0.0848
      2 C         138.6029  138.1088  165.2193 C.ar    1  UNL1        0.0102
      3 C         138.6407  138.8316  166.5332 C.ar    1  UNL1        0.0343
      4 C         139.6121  139.9549  166.7435 C.ar    1  UNL1        0.1299
      5 N         140.5459  140.3555  165.6399 N.ar    1  UNL1       -0.2160
      6 C         140.5081  139.6327  164.3261 C.ar    1  UNL1        0.1377
      7 N         138.1950  137.6055  162.0828 N.am    1  UNL1       -0.3252
      8 C         139.4987  137.7865  162.8020 C.2     1  UNL1        0.2455
      9 O         140.7649  137.2447  162.2074 O.2     1  UNL1       -0.2703
     10 H         138.1702  137.1311  161.2205 H       1  UNL1        0.1453
     11 H         137.3640  137.9611  162.4731 H       1  UNL1        0.1453
     12 N         139.6500  140.6777  168.0573 N.pl3   1  UNL1       -0.3184
     13 H         138.8101  140.9160  168.5124 H       1  UNL1        0.1482
     14 C         140.9674  141.0375  168.6777 C.3     1  UNL1        0.0844
     15 C         141.8585  142.0454  168.0142 C.3     1  UNL1        0.0209
     16 C         143.1760  142.4051  168.6347 C.3     1  UNL1        0.0018
     17 C         143.6023  141.7571  169.9186 C.3     1  UNL1        0.0015
     18 C         142.7111  140.7492  170.5820 C.3     1  UNL1        0.0172
     19 C         141.3937  140.3894  169.9616 C.3     1  UNL1        0.0689
     20 N         140.5025  139.3816  170.6249 N.3     1  UNL1       -0.3209
     21 H         139.6551  139.2599  170.0704 H       1  UNL1        0.1189
     22 H         140.2539  139.7097  171.5582 H       1  UNL1        0.1189
     23 N         141.4418  140.0333  163.2226 N.pl3   1  UNL1       -0.2993
     24 H         141.1983  139.8599  162.2846 H       1  UNL1        0.1534
     25 C         142.7464  140.6980  163.5483 C.2     1  UNL1        0.0531
     26 C         143.9903  139.8738  163.7017 C.2     1  UNL1        0.0125
     27 C         145.2949  140.5385  164.0273 C.2     1  UNL1        0.0008
     28 C         145.3557  142.0274  164.1996 C.2     1  UNL1       -0.0020
     29 C         144.1118  142.8515  164.0462 C.2     1  UNL1        0.0067
     30 C         143.8654  144.3269  164.1572 C.2     1  UNL1        0.0182
     31 C         142.4084  144.5741  163.9002 C.2     1  UNL1        0.0936
     32 N         141.7544  143.2514  163.6303 N.2     1  UNL1       -0.2607
     33 C         142.8072  142.1868  163.7206 C.3     1  UNL1        0.1609
@<TRIPOS>BOND
     1     7     8   am
     2     8     9    2
     3     8     1    1
     4     1     2   ar
     5     2     3   ar
     6     3     4   ar
     7     4    12    1
     8    14    12    1
     9    14    15    1
    10    15    16    1
    11    16    17    1
    12    17    18    1
    13    18    19    1
    14    19    20    1
    15     4     5   ar
    16     5     6   ar
    17     6    23    1
    18    23    25    1
    19    25    26    2
    20    26    27    1
    21    27    28    2
    22    28    29    1
    23    29    30    2
    24    30    31    1
    25    31    32    2
    26    32    33    1
    27     6     1   ar
    28    33    25    1
    29    19    14    1
    30    33    29    1
    31     7    10    1
    32     7    11    1
    33    12    13    1
    34    20    21    1
    35    20    22    1
    36    23    24    1
@<TRIPOS>MOLECULE
*****
 33 36 0 0 0
SMALL
GASTEIGER

@<TRIPOS>ATOM
      1 C         138.9643  139.5396  164.5160 C.ar    1  UNL1        0.0848
      2 C         138.0289  138.9860  165.5497 C.ar    1  UNL1        0.0102
      3 C         138.3660  139.1044  167.0066 C.ar    1  UNL1        0.0343
      4 C         139.6385  139.7763  167.4297 C.ar    1  UNL1        0.1299
      5 N         140.5740  140.3299  166.3960 N.ar    1  UNL1       -0.2160
      6 C         140.2369  140.2115  164.9392 C.ar    1  UNL1        0.1377
      7 N         137.4619  140.1785  162.4951 N.am    1  UNL1       -0.3252
      8 C         138.6272  139.4212  163.0592 C.2     1  UNL1        0.2455
      9 O         139.4555  138.5453  162.1665 O.2     1  UNL1       -0.2703
     10 H         137.2406  140.1008  161.5389 H       1  UNL1        0.1453
     11 H         136.9182  140.7533  163.0810 H       1  UNL1        0.1453
     12 N         139.9756  139.8947  168.8865 N.pl3   1  UNL1       -0.3184
     13 H         139.5387  139.3047  169.5424 H       1  UNL1        0.1482
     14 C         140.9785  140.9120  169.3440 C.3     1  UNL1        0.0844
     15 C         140.5474  142.3244  169.6072 C.3     1  UNL1        0.0209
     16 C         141.5504  143.3417  170.0647 C.3     1  UNL1        0.0018
     17 C         142.9843  142.9467  170.2590 C.3     1  UNL1        0.0015
     18 C         143.4153  141.5342  169.9958 C.3     1  UNL1        0.0172
     19 C         142.4125  140.5169  169.5383 C.3     1  UNL1        0.0689
     20 N         142.8434  139.1044  169.2751 N.3     1  UNL1       -0.3209
     21 H         142.0391  138.5541  168.9742 H       1  UNL1        0.1189
     22 H         143.2304  138.7023  170.1289 H       1  UNL1        0.1189
     23 N         141.1723  140.7651  163.9056 N.pl3   1  UNL1       -0.2993
     24 H         141.6115  140.1603  163.2648 H       1  UNL1        0.1534
     25 C         141.4386  142.2402  163.8481 C.2     1  UNL1        0.0531
     26 C         142.7998  142.7704  164.1885 C.2     1  UNL1        0.0125
     27 C         143.0661  144.2454  164.1311 C.2     1  UNL1        0.0008
     28 C         141.9711  145.1903  163.7332 C.2     1  UNL1       -0.0020
     29 C         140.6099  144.6601  163.3928 C.2     1  UNL1        0.0067
     30 C         139.3435  145.3436  162.9697 C.2     1  UNL1        0.0182
     31 C         138.2946  144.2910  162.7657 C.2     1  UNL1        0.0936
     32 N         138.9126  142.9569  163.0627 N.2     1  UNL1       -0.2607
     33 C         140.3436  143.1850  163.4503 C.3     1  UNL1        0.1609
@<TRIPOS>BOND
     1     7     8   am
     2     8     9    2
     3     8     1    1
     4     1     2   ar
     5     2     3   ar
     6     3     4   ar
     7     4    12    1
     8    14    12    1
     9    14    15    1
    10    15    16    1
    11    16    17    1
    12    17    18    1
    13    18    19    1
    14    19    20    1
    15     4     5   ar
    16     5     6   ar
    17     6    23    1
    18    23    25    1
    19    25    26    2
    20    26    27    1
    21    27    28    2
    22    28    29    1
    23    29    30    2
    24    30    31    1
    25    31    32    2
    26    32    33    1
    27     6     1   ar
    28    33    25    1
    29    19    14    1
    30    33    29    1
    31     7    10    1
    32     7    11    1
    33    12    13    1
    34    20    21    1
    35    20    22    1
    36    23    24    1
@<TRIPOS>MOLECULE
*****
 33 36 0 0 0
SMALL
GASTEIGER

@<TRIPOS>ATOM
      1 C         139.4003  139.8645  167.8127 C.ar    1  UNL1        0.0848
      2 C         138.1610  139.0530  167.5766 C.ar    1  UNL1        0.0102
      3 C         138.0128  138.2612  166.3111 C.ar    1  UNL1        0.0343
      4 C         139.1037  138.2810  165.2819 C.ar    1  UNL1        0.1299
      5 N         140.3430  139.0925  165.5180 N.ar    1  UNL1       -0.2160
      6 C         140.4912  139.8842  166.7834 C.ar    1  UNL1        0.1377
      7 N         139.0655  140.0877  170.3794 N.am    1  UNL1       -0.3252
      8 C         139.5485  140.6562  169.0781 C.2     1  UNL1        0.2455
      9 O         140.1798  142.0165  169.0421 O.2     1  UNL1       -0.2703
     10 H         139.1628  140.6074  171.2099 H       1  UNL1        0.1453
     11 H         138.6512  139.1950  170.4030 H       1  UNL1        0.1453
     12 N         138.9555  137.4893  164.0165 N.pl3   1  UNL1       -0.3184
     13 H         138.7828  136.5210  164.0591 H       1  UNL1        0.1482
     14 C         139.0703  138.1729  162.6863 C.3     1  UNL1        0.0844
     15 C         137.9463  139.0299  162.1840 C.3     1  UNL1        0.0209
     16 C         138.0612  139.7135  160.8537 C.3     1  UNL1        0.0018
     17 C         139.3000  139.5402  160.0258 C.3     1  UNL1        0.0015
     18 C         140.4239  138.6831  160.5282 C.3     1  UNL1        0.0172
     19 C         140.3091  137.9996  161.8584 C.3     1  UNL1        0.0689
     20 N         141.4330  137.1426  162.3608 N.3     1  UNL1       -0.3209
     21 H         141.1866  136.7595  163.2735 H       1  UNL1        0.1189
     22 H         142.2787  137.7064  162.4458 H       1  UNL1        0.1189
     23 N         141.7305  140.6957  167.0195 N.pl3   1  UNL1       -0.2993
     24 H         142.2592  140.5598  167.8388 H       1  UNL1        0.1534
     25 C         142.1641  141.7143  166.0074 C.2     1  UNL1        0.0531
     26 C         143.5657  141.6915  165.4735 C.2     1  UNL1        0.0125
     27 C         143.9994  142.7100  164.4614 C.2     1  UNL1        0.0008
     28 C         143.0315  143.7515  163.9831 C.2     1  UNL1       -0.0020
     29 C         141.6299  143.7742  164.5170 C.2     1  UNL1        0.0067
     30 C         140.4629  144.6733  164.2347 C.2     1  UNL1        0.0182
     31 C         139.3080  144.2104  165.0724 C.2     1  UNL1        0.0936
     32 N         139.7612  143.0252  165.8724 N.2     1  UNL1       -0.2607
     33 C         141.1963  142.7557  165.5291 C.3     1  UNL1        0.1609
@<TRIPOS>BOND
     1     7     8   am
     2     8     9    2
     3     8     1    1
     4     1     2   ar
     5     2     3   ar
     6     3     4   ar
     7     4    12    1
     8    14    12    1
     9    14    15    1
    10    15    16    1
    11    16    17    1
    12    17    18    1
    13    18    19    1
    14    19    20    1
    15     4     5   ar
    16     5     6   ar
    17     6    23    1
    18    23    25    1
    19    25    26    2
    20    26    27    1
    21    27    28    2
    22    28    29    1
    23    29    30    2
    24    30    31    1
    25    31    32    2
    26    32    33    1
    27     6     1   ar
    28    33    25    1
    29    19    14    1
    30    33    29    1
    31     7    10    1
    32     7    11    1
    33    12    13    1
    34    20    21    1
    35    20    22    1
    36    23    24    1
@<TRIPOS>MOLECULE
*****
 33 36 0 0 0
SMALL
GASTEIGER

@<TRIPOS>ATOM
      1 C         139.8998  139.7698  167.8156 C.ar    1  UNL1        0.0848
      2 C         138.4628  139.3994  167.5970 C.ar    1  UNL1        0.0102
      3 C         138.0459  138.7340  166.3189 C.ar    1  UNL1        0.0343
      4 C         139.0658  138.4390  165.2594 C.ar    1  UNL1        0.1299
      5 N         140.5029  138.8095  165.4780 N.ar    1  UNL1       -0.2160
      6 C         140.9199  139.4748  166.7560 C.ar    1  UNL1        0.1377
      7 N         140.0434  139.7694  170.4096 N.am    1  UNL1       -0.3252
      8 C         140.3168  140.4352  169.0936 C.2     1  UNL1        0.2455
      9 O         141.0071  141.7664  169.0556 O.2     1  UNL1       -0.2703
     10 H         140.3171  140.2061  171.2485 H       1  UNL1        0.1453
     11 H         139.5903  138.8957  170.4346 H       1  UNL1        0.1453
     12 N         138.6489  137.7737  163.9814 N.pl3   1  UNL1       -0.3184
     13 H         138.0604  136.9849  164.0063 H       1  UNL1        0.1482
     14 C         139.1287  138.3102  162.6653 C.3     1  UNL1        0.0844
     15 C         138.2777  139.2743  161.8932 C.3     1  UNL1        0.0209
     16 C         138.7575  139.8107  160.5772 C.3     1  UNL1        0.0018
     17 C         140.0884  139.3831  160.0332 C.3     1  UNL1        0.0015
     18 C         140.9395  138.4189  160.8054 C.3     1  UNL1        0.0172
     19 C         140.4597  137.8825  162.1214 C.3     1  UNL1        0.0689
     20 N         141.3106  136.9184  162.8936 N.3     1  UNL1       -0.3209
     21 H         140.8333  136.6596  163.7570 H       1  UNL1        0.1189
     22 H         142.2039  137.3570  163.1173 H       1  UNL1        0.1189
     23 N         142.3569  139.8453  166.9746 N.pl3   1  UNL1       -0.2993
     24 H         142.8518  139.4685  167.7377 H       1  UNL1        0.1534
     25 C         143.0398  140.7899  166.0305 C.2     1  UNL1        0.0531
     26 C         143.2149  142.2311  166.4076 C.2     1  UNL1        0.0125
     27 C         143.8978  143.1757  165.4636 C.2     1  UNL1        0.0008
     28 C         144.4058  142.6791  164.1424 C.2     1  UNL1       -0.0020
     29 C         144.2308  141.2379  163.7654 C.2     1  UNL1        0.0067
     30 C         144.6246  140.4657  162.5412 C.2     1  UNL1        0.0182
     31 C         144.1851  139.0439  162.7287 C.2     1  UNL1        0.0936
     32 N         143.5195  138.9373  164.0687 N.2     1  UNL1       -0.2607
     33 C         143.5478  140.2933  164.7094 C.3     1  UNL1        0.1609
@<TRIPOS>BOND
     1     7     8   am
     2     8     9    2
     3     8     1    1
     4     1     2   ar
     5     2     3   ar
     6     3     4   ar
     7     4    12    1
     8    14    12    1
     9    14    15    1
    10    15    16    1
    11    16    17    1
    12    17    18    1
    13    18    19    1
    14    19    20    1
    15     4     5   ar
    16     5     6   ar
    17     6    23    1
    18    23    25    1
    19    25    26    2
    20    26    27    1
    21    27    28    2
    22    28    29    1
    23    29    30    2
    24    30    31    1
    25    31    32    2
    26    32    33    1
    27     6     1   ar
    28    33    25    1
    29    19    14    1
    30    33    29    1
    31     7    10    1
    32     7    11    1
    33    12    13    1
    34    20    21    1
    35    20    22    1
    36    23    24    1
@<TRIPOS>MOLECULE
*****
 33 36 0 0 0
SMALL
GASTEIGER

@<TRIPOS>ATOM
      1 C         142.2277  139.0602  164.0502 C.ar    1  UNL1        0.0848
      2 C         143.3228  138.4298  164.8584 C.ar    1  UNL1        0.0102
      3 C         143.3951  138.6673  166.3378 C.ar    1  UNL1        0.0343
      4 C         142.3724  139.5353  167.0089 C.ar    1  UNL1        0.1299
      5 N         141.2772  140.1658  166.2007 N.ar    1  UNL1       -0.2160
      6 C         141.2049  139.9283  164.7214 C.ar    1  UNL1        0.1377
      7 N         142.2808  137.4301  162.0279 N.am    1  UNL1       -0.3252
      8 C         142.1554  138.8227  162.5709 C.2     1  UNL1        0.2455
      9 O         141.9577  139.9779  161.6346 O.2     1  UNL1       -0.2703
     10 H         142.2333  137.2743  161.0570 H       1  UNL1        0.1453
     11 H         142.4106  136.6720  162.6425 H       1  UNL1        0.1453
     12 N         142.4447  139.7729  168.4882 N.pl3   1  UNL1       -0.3184
     13 H         143.0398  139.2222  169.0466 H       1  UNL1        0.1482
     14 C         141.6104  140.8495  169.1166 C.3     1  UNL1        0.0844
     15 C         140.2288  140.5361  169.6094 C.3     1  UNL1        0.0209
     16 C         139.3945  141.6128  170.2378 C.3     1  UNL1        0.0018
     17 C         139.9418  143.0027  170.3733 C.3     1  UNL1        0.0015
     18 C         141.3235  143.3161  169.8805 C.3     1  UNL1        0.0172
     19 C         142.1578  142.2395  169.2521 C.3     1  UNL1        0.0689
     20 N         143.5394  142.5528  168.7592 N.3     1  UNL1       -0.3209
     21 H         143.9587  141.7108  168.3648 H       1  UNL1        0.1189
     22 H         144.1104  142.8849  169.5364 H       1  UNL1        0.1189
     23 N         140.1098  140.5588  163.9132 N.pl3   1  UNL1       -0.2993
     24 H         139.6092  140.0207  163.2581 H       1  UNL1        0.1534
     25 C         139.7773  142.0091  164.1031 C.2     1  UNL1        0.0531
     26 C         138.4050  142.4108  164.5564 C.2     1  UNL1        0.0125
     27 C         138.0726  143.8611  164.7463 C.2     1  UNL1        0.0008
     28 C         139.1123  144.9097  164.4830 C.2     1  UNL1       -0.0020
     29 C         140.4846  144.5080  164.0297 C.2     1  UNL1        0.0067
     30 C         141.7063  145.3113  163.6948 C.2     1  UNL1        0.0182
     31 C         142.7938  144.3575  163.2980 C.2     1  UNL1        0.0936
     32 N         142.2443  142.9647  163.3876 N.2     1  UNL1       -0.2607
     33 C         140.8171  143.0576  163.8398 C.3     1  UNL1        0.1609
@<TRIPOS>BOND
     1     7     8   am
     2     8     9    2
     3     8     1    1
     4     1     2   ar
     5     2     3   ar
     6     3     4   ar
     7     4    12    1
     8    14    12    1
     9    14    15    1
    10    15    16    1
    11    16    17    1
    12    17    18    1
    13    18    19    1
    14    19    20    1
    15     4     5   ar
    16     5     6   ar
    17     6    23    1
    18    23    25    1
    19    25    26    2
    20    26    27    1
    21    27    28    2
    22    28    29    1
    23    29    30    2
    24    30    31    1
    25    31    32    2
    26    32    33    1
    27     6     1   ar
    28    33    25    1
    29    19    14    1
    30    33    29    1
    31     7    10    1
    32     7    11    1
    33    12    13    1
    34    20    21    1
    35    20    22    1
    36    23    24    1
@<TRIPOS>MOLECULE
*****
 33 36 0 0 0
SMALL
GASTEIGER

@<TRIPOS>ATOM
      1 C         140.3877  139.9001  168.4862 C.ar    1  UNL1        0.0848
      2 C         141.7691  139.7540  169.0523 C.ar    1  UNL1        0.0102
      3 C         142.9016  139.3271  168.1660 C.ar    1  UNL1        0.0343
      4 C         142.6527  139.0464  166.7138 C.ar    1  UNL1        0.1299
      5 N         141.2713  139.1926  166.1476 N.ar    1  UNL1       -0.2160
      6 C         140.1389  139.6194  167.0338 C.ar    1  UNL1        0.1377
      7 N         139.3612  141.5952  170.1663 N.am    1  UNL1       -0.3252
      8 C         139.2553  140.3270  169.3725 C.2     1  UNL1        0.2455
      9 O         138.0170  139.4854  169.4648 O.2     1  UNL1       -0.2703
     10 H         138.6179  141.8753  170.7479 H       1  UNL1        0.1453
     11 H         140.1739  142.1475  170.1056 H       1  UNL1        0.1453
     12 N         143.7851  138.6196  165.8275 N.pl3   1  UNL1       -0.3184
     13 H         144.3982  137.9073  166.1208 H       1  UNL1        0.1482
     14 C         143.9834  139.2780  164.4944 C.3     1  UNL1        0.0844
     15 C         144.9410  140.4245  164.3592 C.3     1  UNL1        0.0209
     16 C         145.1393  141.0829  163.0260 C.3     1  UNL1        0.0018
     17 C         144.3799  140.5947  161.8281 C.3     1  UNL1        0.0015
     18 C         143.4222  139.4481  161.9634 C.3     1  UNL1        0.0172
     19 C         143.2239  138.7898  163.2964 C.3     1  UNL1        0.0689
     20 N         142.2663  137.6433  163.4317 N.3     1  UNL1       -0.3209
     21 H         142.2570  137.3204  164.3993 H       1  UNL1        0.1189
     22 H         142.5606  136.8806  162.8217 H       1  UNL1        0.1189
     23 N         138.7575  139.7656  166.4678 N.pl3   1  UNL1       -0.2993
     24 H         137.9940  139.9264  167.0681 H       1  UNL1        0.1534
     25 C         138.5394  139.6667  164.9870 C.2     1  UNL1        0.0531
     26 C         138.6404  138.3365  164.3012 C.2     1  UNL1        0.0125
     27 C         138.4223  138.2377  162.8205 C.2     1  UNL1        0.0008
     28 C         138.1033  139.4691  162.0254 C.2     1  UNL1       -0.0020
     29 C         138.0024  140.7993  162.7113 C.2     1  UNL1        0.0067
     30 C         137.7044  142.1753  162.1937 C.2     1  UNL1        0.0182
     31 C         137.7383  143.1245  163.3546 C.2     1  UNL1        0.0936
     32 N         138.0572  142.3352  164.5897 N.2     1  UNL1       -0.2607
     33 C         138.2204  140.8981  164.1920 C.3     1  UNL1        0.1609
@<TRIPOS>BOND
     1     7     8   am
     2     8     9    2
     3     8     1    1
     4     1     2   ar
     5     2     3   ar
     6     3     4   ar
     7     4    12    1
     8    14    12    1
     9    14    15    1
    10    15    16    1
    11    16    17    1
    12    17    18    1
    13    18    19    1
    14    19    20    1
    15     4     5   ar
    16     5     6   ar
    17     6    23    1
    18    23    25    1
    19    25    26    2
    20    26    27    1
    21    27    28    2
    22    28    29    1
    23    29    30    2
    24    30    31    1
    25    31    32    2
    26    32    33    1
    27     6     1   ar
    28    33    25    1
    29    19    14    1
    30    33    29    1
    31     7    10    1
    32     7    11    1
    33    12    13    1
    34    20    21    1
    35    20    22    1
    36    23    24    1
@<TRIPOS>MOLECULE
*****
 33 36 0 0 0
SMALL
GASTEIGER

@<TRIPOS>ATOM
      1 C         140.2213  144.4411  163.0797 C.ar    1  UNL1        0.0848
      2 C         141.4233  145.2313  163.5050 C.ar    1  UNL1        0.0102
      3 C         142.5253  144.5648  164.2740 C.ar    1  UNL1        0.0343
      4 C         142.4254  143.1083  164.6179 C.ar    1  UNL1        0.1299
      5 N         141.2233  142.3180  164.1927 N.ar    1  UNL1       -0.2160
      6 C         140.1214  142.9844  163.4236 C.ar    1  UNL1        0.1377
      7 N         139.4448  146.1639  161.2968 N.am    1  UNL1       -0.3252
      8 C         139.1193  145.1076  162.3107 C.2     1  UNL1        0.2455
      9 O         137.6917  144.7176  162.5557 O.2     1  UNL1       -0.2703
     10 H         138.7215  146.6013  160.7921 H       1  UNL1        0.1453
     11 H         140.3818  146.4198  161.1361 H       1  UNL1        0.1453
     12 N         143.5273  142.4418  165.3869 N.pl3   1  UNL1       -0.3184
     13 H         144.4575  142.5076  165.0712 H       1  UNL1        0.1482
     14 C         143.2121  141.6751  166.6370 C.3     1  UNL1        0.0844
     15 C         143.3340  142.3404  167.9758 C.3     1  UNL1        0.0209
     16 C         143.0188  141.5736  169.2259 C.3     1  UNL1        0.0018
     17 C         142.5816  140.1415  169.1372 C.3     1  UNL1        0.0015
     18 C         142.4597  139.4761  167.7983 C.3     1  UNL1        0.0172
     19 C         142.7749  140.2428  166.5483 C.3     1  UNL1        0.0689
     20 N         142.6531  139.5776  165.2094 N.3     1  UNL1       -0.3209
     21 H         142.9039  140.2407  164.4762 H       1  UNL1        0.1189
     22 H         141.6919  139.2653  165.0712 H       1  UNL1        0.1189
     23 N         138.9194  142.1943  162.9984 N.pl3   1  UNL1       -0.2993
     24 H         138.0864  142.6585  162.7538 H       1  UNL1        0.1534
     25 C         138.9865  140.6967  162.9459 C.2     1  UNL1        0.0531
     26 C         139.2756  140.0040  161.6472 C.2     1  UNL1        0.0125
     27 C         139.3427  138.5065  161.5946 C.2     1  UNL1        0.0008
     28 C         139.1208  137.7015  162.8408 C.2     1  UNL1       -0.0020
     29 C         138.8317  138.3942  164.1395 C.2     1  UNL1        0.0067
     30 C         138.5719  137.8698  165.5206 C.2     1  UNL1        0.0182
     31 C         138.3441  139.0432  166.4267 C.2     1  UNL1        0.0936
     32 N         138.4632  140.2929  165.6056 N.2     1  UNL1       -0.2607
     33 C         138.7646  139.8918  164.1920 C.3     1  UNL1        0.1609
@<TRIPOS>BOND
     1     7     8   am
     2     8     9    2
     3     8     1    1
     4     1     2   ar
     5     2     3   ar
     6     3     4   ar
     7     4    12    1
     8    14    12    1
     9    14    15    1
    10    15    16    1
    11    16    17    1
    12    17    18    1
    13    18    19    1
    14    19    20    1
    15     4     5   ar
    16     5     6   ar
    17     6    23    1
    18    23    25    1
    19    25    26    2
    20    26    27    1
    21    27    28    2
    22    28    29    1
    23    29    30    2
    24    30    31    1
    25    31    32    2
    26    32    33    1
    27     6     1   ar
    28    33    25    1
    29    19    14    1
    30    33    29    1
    31     7    10    1
    32     7    11    1
    33    12    13    1
    34    20    21    1
    35    20    22    1
    36    23    24    1
