@<TRIPOS>MOLECULE
*****
 21 22 0 0 0
SMALL
GASTEIGER

@<TRIPOS>ATOM
      1 C         139.3987  138.2268  164.0412 C.ar    1  UNL1        0.0287
      2 C         138.7363  137.2131  164.9263 C.ar    1  UNL1        0.0297
      3 C         138.1091  137.6423  166.2195 C.ar    1  UNL1        0.1401
      4 F         137.4467  136.6284  167.1046 F       1  UNL1       -0.2042
      5 C         138.1442  139.0852  166.6276 C.ar    1  UNL1        0.0327
      6 C         138.8066  140.0990  165.7425 C.ar    1  UNL1        0.0395
      7 C         139.4338  139.6698  164.4493 C.ar    1  UNL1        0.1426
      8 C         140.0259  137.7977  162.7480 C.3     1  UNL1        0.0800
      9 C         139.2963  138.0081  161.4544 C.3     1  UNL1        0.0221
     10 C         142.5922  137.9647  162.3789 C.3     1  UNL1        0.0861
     11 N         141.3827  137.1581  162.7484 N.3     1  UNL1       -0.2939
     12 H         141.5413  136.8047  163.6919 H       1  UNL1        0.1235
     13 O         140.0962  140.6837  163.5641 O.3     1  UNL1       -0.4537
     14 C         141.2693  141.4692  164.0707 C.ar    1  UNL1        0.1462
     15 C         142.3323  140.7902  164.8826 C.ar    1  UNL1        0.0384
     16 C         143.5054  141.5758  165.3892 C.ar    1  UNL1        0.0154
     17 C         143.6156  143.0403  165.0841 C.ar    1  UNL1        0.0684
     18 CL        144.7887  143.8258  165.5907 Cl      1  UNL1       -0.0814
     19 C         142.5526  143.7192  164.2723 C.ar    1  UNL1        0.0712
     20 CL        142.6627  145.1837  163.9671 Cl      1  UNL1       -0.0813
     21 C         141.3794  142.9337  163.7656 C.ar    1  UNL1        0.0497
@<TRIPOS>BOND
     1    10    11    1
     2    11     8    1
     3     8     9    1
     4     8     1    1
     5     1     2   ar
     6     2     3   ar
     7     3     4    1
     8     3     5   ar
     9     5     6   ar
    10     6     7   ar
    11     7    13    1
    12    13    14    1
    13    14    15   ar
    14    15    16   ar
    15    16    17   ar
    16    17    18    1
    17    17    19   ar
    18    19    20    1
    19    19    21   ar
    20     7     1   ar
    21    21    14   ar
    22    11    12    1
@<TRIPOS>MOLECULE
*****
 21 22 0 0 0
SMALL
GASTEIGER

@<TRIPOS>ATOM
      1 C         140.6703  144.2131  164.0937 C.ar    1  UNL1        0.0287
      2 C         141.6986  145.2193  163.6692 C.ar    1  UNL1        0.0297
      3 C         143.1373  144.8141  163.5439 C.ar    1  UNL1        0.1401
      4 F         144.1657  145.8203  163.1194 F       1  UNL1       -0.2042
      5 C         143.5478  143.4027  163.8432 C.ar    1  UNL1        0.0327
      6 C         142.5195  142.3966  164.2677 C.ar    1  UNL1        0.0395
      7 C         141.0807  142.8018  164.3929 C.ar    1  UNL1        0.1426
      8 C         139.2315  144.6183  164.2190 C.3     1  UNL1        0.0800
      9 C         138.6726  144.9960  165.5588 C.3     1  UNL1        0.0221
     10 C         137.9738  143.3642  162.3229 C.3     1  UNL1        0.0861
     11 N         138.3516  144.6459  163.0046 N.3     1  UNL1       -0.2939
     12 H         137.4811  145.0995  163.2819 H       1  UNL1        0.1235
     13 O         140.0524  141.7956  164.8175 O.3     1  UNL1       -0.4537
     14 C         139.9481  141.3921  166.2584 C.ar    1  UNL1        0.1462
     15 C         139.3030  140.0891  166.6276 C.ar    1  UNL1        0.0384
     16 C         139.1986  139.6856  168.0685 C.ar    1  UNL1        0.0154
     17 C         139.7393  140.5850  169.1403 C.ar    1  UNL1        0.0684
     18 CL        139.6349  140.1816  170.5812 Cl      1  UNL1       -0.0814
     19 C         140.3844  141.8879  168.7711 C.ar    1  UNL1        0.0712
     20 CL        140.9251  142.7873  169.8429 Cl      1  UNL1       -0.0813
     21 C         140.4888  142.2915  167.3302 C.ar    1  UNL1        0.0497
@<TRIPOS>BOND
     1    10    11    1
     2    11     8    1
     3     8     9    1
     4     8     1    1
     5     1     2   ar
     6     2     3   ar
     7     3     4    1
     8     3     5   ar
     9     5     6   ar
    10     6     7   ar
    11     7    13    1
    12    13    14    1
    13    14    15   ar
    14    15    16   ar
    15    16    17   ar
    16    17    18    1
    17    17    19   ar
    18    19    20    1
    19    19    21   ar
    20     7     1   ar
    21    21    14   ar
    22    11    12    1
@<TRIPOS>MOLECULE
*****
 21 22 0 0 0
SMALL
GASTEIGER

@<TRIPOS>ATOM
      1 C         141.6090  140.6356  167.5841 C.ar    1  UNL1        0.0287
      2 C         142.7716  139.6922  167.6749 C.ar    1  UNL1        0.0297
      3 C         142.9997  138.6767  166.5947 C.ar    1  UNL1        0.1401
      4 F         144.1623  137.7332  166.6856 F       1  UNL1       -0.2042
      5 C         142.0651  138.6046  165.4237 C.ar    1  UNL1        0.0327
      6 C         140.9025  139.5480  165.3329 C.ar    1  UNL1        0.0395
      7 C         140.6745  140.5635  166.4131 C.ar    1  UNL1        0.1426
      8 C         141.3810  141.6511  168.6643 C.3     1  UNL1        0.0800
      9 C         142.5119  142.5215  169.1261 C.3     1  UNL1        0.0221
     10 C         139.3549  140.6102  169.9137 C.3     1  UNL1        0.0861
     11 N         140.0221  141.7961  169.2825 N.3     1  UNL1       -0.2939
     12 H         140.1031  142.5089  170.0077 H       1  UNL1        0.1235
     13 O         139.5118  141.5069  166.3222 O.3     1  UNL1       -0.4537
     14 C         139.5189  142.6103  165.3061 C.ar    1  UNL1        0.1462
     15 C         138.2880  142.8922  164.4964 C.ar    1  UNL1        0.0384
     16 C         138.2951  143.9956  163.4804 C.ar    1  UNL1        0.0154
     17 C         139.5330  144.8171  163.2738 C.ar    1  UNL1        0.0684
     18 CL        139.5401  145.9204  162.2577 Cl      1  UNL1       -0.0814
     19 C         140.7639  144.5352  164.0834 C.ar    1  UNL1        0.0712
     20 CL        142.0018  145.3566  163.8769 Cl      1  UNL1       -0.0813
     21 C         140.7568  143.4318  165.0996 C.ar    1  UNL1        0.0497
@<TRIPOS>BOND
     1    10    11    1
     2    11     8    1
     3     8     9    1
     4     8     1    1
     5     1     2   ar
     6     2     3   ar
     7     3     4    1
     8     3     5   ar
     9     5     6   ar
    10     6     7   ar
    11     7    13    1
    12    13    14    1
    13    14    15   ar
    14    15    16   ar
    15    16    17   ar
    16    17    18    1
    17    17    19   ar
    18    19    20    1
    19    19    21   ar
    20     7     1   ar
    21    21    14   ar
    22    11    12    1
@<TRIPOS>MOLECULE
*****
 21 22 0 0 0
SMALL
GASTEIGER

@<TRIPOS>ATOM
      1 C         141.8794  139.8214  167.6373 C.ar    1  UNL1        0.0287
      2 C         142.4885  140.0562  168.9878 C.ar    1  UNL1        0.0297
      3 C         141.6081  140.3406  170.1685 C.ar    1  UNL1        0.1401
      4 F         142.2172  140.5753  171.5190 F       1  UNL1       -0.2042
      5 C         140.1186  140.3903  169.9987 C.ar    1  UNL1        0.0327
      6 C         139.5095  140.1556  168.6482 C.ar    1  UNL1        0.0395
      7 C         140.3899  139.8711  167.4675 C.ar    1  UNL1        0.1426
      8 C         142.7598  139.5370  166.4567 C.3     1  UNL1        0.0800
      9 C         143.5731  138.2774  166.4138 C.3     1  UNL1        0.0221
     10 C         142.6028  140.0405  163.9127 C.3     1  UNL1        0.0861
     11 N         142.8268  140.5121  165.3189 N.3     1  UNL1       -0.2939
     12 H         142.1257  141.2294  165.5041 H       1  UNL1        0.1235
     13 O         139.7807  139.6364  166.1170 O.3     1  UNL1       -0.4537
     14 C         139.2039  140.7855  165.3444 C.ar    1  UNL1        0.1462
     15 C         138.1833  140.5329  164.2745 C.ar    1  UNL1        0.0384
     16 C         137.6065  141.6819  163.5019 C.ar    1  UNL1        0.0154
     17 C         138.0502  143.0836  163.7992 C.ar    1  UNL1        0.0684
     18 CL        137.4734  144.2327  163.0266 Cl      1  UNL1       -0.0814
     19 C         139.0708  143.3362  164.8690 C.ar    1  UNL1        0.0712
     20 CL        139.5145  144.7379  165.1663 Cl      1  UNL1       -0.0813
     21 C         139.6476  142.1871  165.6417 C.ar    1  UNL1        0.0497
@<TRIPOS>BOND
     1    10    11    1
     2    11     8    1
     3     8     9    1
     4     8     1    1
     5     1     2   ar
     6     2     3   ar
     7     3     4    1
     8     3     5   ar
     9     5     6   ar
    10     6     7   ar
    11     7    13    1
    12    13    14    1
    13    14    15   ar
    14    15    16   ar
    15    16    17   ar
    16    17    18    1
    17    17    19   ar
    18    19    20    1
    19    19    21   ar
    20     7     1   ar
    21    21    14   ar
    22    11    12    1
@<TRIPOS>MOLECULE
*****
 21 22 0 0 0
SMALL
GASTEIGER

@<TRIPOS>ATOM
      1 C         139.7927  140.6342  167.7183 C.ar    1  UNL1        0.0287
      2 C         138.8816  139.4631  167.9381 C.ar    1  UNL1        0.0297
      3 C         138.0300  138.9538  166.8131 C.ar    1  UNL1        0.1401
      4 F         137.1189  137.7826  167.0330 F       1  UNL1       -0.2042
      5 C         138.0895  139.6157  165.4684 C.ar    1  UNL1        0.0327
      6 C         139.0006  140.7868  165.2487 C.ar    1  UNL1        0.0395
      7 C         139.8522  141.2961  166.3736 C.ar    1  UNL1        0.1426
      8 C         140.6443  141.1434  168.8433 C.3     1  UNL1        0.0800
      9 C         141.3082  140.1766  169.7783 C.3     1  UNL1        0.0221
     10 C         141.8534  143.1264  170.0075 C.3     1  UNL1        0.0861
     11 N         140.8319  142.6194  169.0331 N.3     1  UNL1       -0.2939
     12 H         141.0780  143.0047  168.1213 H       1  UNL1        0.1235
     13 O         140.7633  142.4673  166.1538 O.3     1  UNL1       -0.4537
     14 C         142.0882  142.2704  165.4785 C.ar    1  UNL1        0.1462
     15 C         142.7899  143.4373  164.8492 C.ar    1  UNL1        0.0384
     16 C         144.1148  143.2405  164.1739 C.ar    1  UNL1        0.0154
     17 C         144.7379  141.8768  164.1280 C.ar    1  UNL1        0.0684
     18 CL        146.0628  141.6800  163.4527 Cl      1  UNL1       -0.0814
     19 C         144.0362  140.7100  164.7573 C.ar    1  UNL1        0.0712
     20 CL        144.6594  139.3463  164.7113 Cl      1  UNL1       -0.0813
     21 C         142.7113  140.9068  165.4326 C.ar    1  UNL1        0.0497
@<TRIPOS>BOND
     1    10    11    1
     2    11     8    1
     3     8     9    1
     4     8     1    1
     5     1     2   ar
     6     2     3   ar
     7     3     4    1
     8     3     5   ar
     9     5     6   ar
    10     6     7   ar
    11     7    13    1
    12    13    14    1
    13    14    15   ar
    14    15    16   ar
    15    16    17   ar
    16    17    18    1
    17    17    19   ar
    18    19    20    1
    19    19    21   ar
    20     7     1   ar
    21    21    14   ar
    22    11    12    1
@<TRIPOS>MOLECULE
*****
 21 22 0 0 0
SMALL
GASTEIGER

@<TRIPOS>ATOM
      1 C         139.8411  140.6264  167.6286 C.ar    1  UNL1        0.0287
      2 C         138.7967  139.6410  168.0625 C.ar    1  UNL1        0.0297
      3 C         138.0190  138.8717  167.0362 C.ar    1  UNL1        0.1401
      4 F         136.9746  137.8863  167.4701 F       1  UNL1       -0.2042
      5 C         138.2857  139.0878  165.5760 C.ar    1  UNL1        0.0327
      6 C         139.3300  140.0732  165.1422 C.ar    1  UNL1        0.0395
      7 C         140.1077  140.8425  166.1685 C.ar    1  UNL1        0.1426
      8 C         140.6188  141.3957  168.6550 C.3     1  UNL1        0.0800
      9 C         141.3320  140.6683  169.7559 C.3     1  UNL1        0.0221
     10 C         140.4594  143.7153  169.8144 C.3     1  UNL1        0.0861
     11 N         140.6833  142.8924  168.5803 N.3     1  UNL1       -0.2939
     12 H         141.6122  143.1302  168.2324 H       1  UNL1        0.1235
     13 O         141.1521  141.8279  165.7345 O.3     1  UNL1       -0.4537
     14 C         140.7930  142.9321  164.7850 C.ar    1  UNL1        0.1462
     15 C         139.6055  143.8050  165.0644 C.ar    1  UNL1        0.0384
     16 C         139.2463  144.9092  164.1148 C.ar    1  UNL1        0.0154
     17 C         140.0746  145.1405  162.8858 C.ar    1  UNL1        0.0684
     18 CL        139.7154  146.2447  161.9362 Cl      1  UNL1       -0.0814
     19 C         141.2620  144.2677  162.6063 C.ar    1  UNL1        0.0712
     20 CL        142.0902  144.4990  161.3773 Cl      1  UNL1       -0.0813
     21 C         141.6212  143.1634  163.5559 C.ar    1  UNL1        0.0497
@<TRIPOS>BOND
     1    10    11    1
     2    11     8    1
     3     8     9    1
     4     8     1    1
     5     1     2   ar
     6     2     3   ar
     7     3     4    1
     8     3     5   ar
     9     5     6   ar
    10     6     7   ar
    11     7    13    1
    12    13    14    1
    13    14    15   ar
    14    15    16   ar
    15    16    17   ar
    16    17    18    1
    17    17    19   ar
    18    19    20    1
    19    19    21   ar
    20     7     1   ar
    21    21    14   ar
    22    11    12    1
@<TRIPOS>MOLECULE
*****
 21 22 0 0 0
SMALL
GASTEIGER

@<TRIPOS>ATOM
      1 C         139.7695  140.5863  167.8222 C.ar    1  UNL1        0.0287
      2 C         139.9977  140.1284  169.2322 C.ar    1  UNL1        0.0297
      3 C         140.4482  141.1078  170.2752 C.ar    1  UNL1        0.1401
      4 F         140.6763  140.6498  171.6853 F       1  UNL1       -0.2042
      5 C         140.6705  142.5450  169.9082 C.ar    1  UNL1        0.0327
      6 C         140.4424  143.0029  168.4982 C.ar    1  UNL1        0.0395
      7 C         139.9919  142.0235  167.4551 C.ar    1  UNL1        0.1426
      8 C         139.3190  139.6069  166.7792 C.3     1  UNL1        0.0800
      9 C         138.0604  138.8175  166.9854 C.3     1  UNL1        0.0221
     10 C         141.5314  138.8966  165.6169 C.3     1  UNL1        0.0861
     11 N         140.1272  139.4169  165.5299 N.3     1  UNL1       -0.2939
     12 H         139.6083  138.7667  164.9396 H       1  UNL1        0.1235
     13 O         139.7638  142.4815  166.0450 O.3     1  UNL1       -0.4537
     14 C         140.8658  143.1645  165.2907 C.ar    1  UNL1        0.1462
     15 C         140.5681  144.3824  164.4671 C.ar    1  UNL1        0.0384
     16 C         141.6702  145.0653  163.7128 C.ar    1  UNL1        0.0154
     17 C         143.0699  144.5305  163.7821 C.ar    1  UNL1        0.0684
     18 CL        144.1719  145.2135  163.0277 Cl      1  UNL1       -0.0814
     19 C         143.3676  143.3127  164.6056 C.ar    1  UNL1        0.0712
     20 CL        144.7673  142.7779  164.6749 Cl      1  UNL1       -0.0813
     21 C         142.2655  142.6297  165.3600 C.ar    1  UNL1        0.0497
@<TRIPOS>BOND
     1    10    11    1
     2    11     8    1
     3     8     9    1
     4     8     1    1
     5     1     2   ar
     6     2     3   ar
     7     3     4    1
     8     3     5   ar
     9     5     6   ar
    10     6     7   ar
    11     7    13    1
    12    13    14    1
    13    14    15   ar
    14    15    16   ar
    15    16    17   ar
    16    17    18    1
    17    17    19   ar
    18    19    20    1
    19    19    21   ar
    20     7     1   ar
    21    21    14   ar
    22    11    12    1
@<TRIPOS>MOLECULE
*****
 21 22 0 0 0
SMALL
GASTEIGER

@<TRIPOS>ATOM
      1 C         140.3474  140.4280  167.0303 C.ar    1  UNL1        0.0287
      2 C         139.4727  139.8703  168.1137 C.ar    1  UNL1        0.0297
      3 C         139.2831  140.6328  169.3915 C.ar    1  UNL1        0.1401
      4 F         138.4084  140.0750  170.4750 F       1  UNL1       -0.2042
      5 C         139.9682  141.9529  169.5859 C.ar    1  UNL1        0.0327
      6 C         140.8429  142.5106  168.5024 C.ar    1  UNL1        0.0395
      7 C         141.0325  141.7482  167.2247 C.ar    1  UNL1        0.1426
      8 C         140.5370  139.6655  165.7525 C.3     1  UNL1        0.0800
      9 C         139.3559  139.0453  165.0669 C.3     1  UNL1        0.0221
     10 C         142.9440  138.6935  165.8585 C.3     1  UNL1        0.0861
     11 N         141.9078  139.5234  165.1603 N.3     1  UNL1       -0.2939
     12 H         141.7866  139.1220  164.2305 H       1  UNL1        0.1235
     13 O         141.9072  142.3059  166.1412 O.3     1  UNL1       -0.4537
     14 C         141.3308  143.2387  165.1177 C.ar    1  UNL1        0.1462
     15 C         142.2388  144.1108  164.3020 C.ar    1  UNL1        0.0384
     16 C         141.6624  145.0436  163.2785 C.ar    1  UNL1        0.0154
     17 C         140.1781  145.1044  163.0706 C.ar    1  UNL1        0.0684
     18 CL        139.6017  146.0372  162.0471 Cl      1  UNL1       -0.0814
     19 C         139.2702  144.2324  163.8862 C.ar    1  UNL1        0.0712
     20 CL        137.7859  144.2932  163.6784 Cl      1  UNL1       -0.0813
     21 C         139.8466  143.2995  164.9098 C.ar    1  UNL1        0.0497
@<TRIPOS>BOND
     1    10    11    1
     2    11     8    1
     3     8     9    1
     4     8     1    1
     5     1     2   ar
     6     2     3   ar
     7     3     4    1
     8     3     5   ar
     9     5     6   ar
    10     6     7   ar
    11     7    13    1
    12    13    14    1
    13    14    15   ar
    14    15    16   ar
    15    16    17   ar
    16    17    18    1
    17    17    19   ar
    18    19    20    1
    19    19    21   ar
    20     7     1   ar
    21    21    14   ar
    22    11    12    1
@<TRIPOS>MOLECULE
*****
 21 22 0 0 0
SMALL
GASTEIGER

@<TRIPOS>ATOM
      1 C         141.1079  141.9919  167.8081 C.ar    1  UNL1        0.0287
      2 C         140.5289  142.9624  168.7944 C.ar    1  UNL1        0.0297
      3 C         139.9177  142.4614  170.0693 C.ar    1  UNL1        0.1401
      4 F         139.3387  143.4320  171.0556 F       1  UNL1       -0.2042
      5 C         139.8855  140.9898  170.3579 C.ar    1  UNL1        0.0327
      6 C         140.4645  140.0193  169.3716 C.ar    1  UNL1        0.0395
      7 C         141.0757  140.5203  168.0967 C.ar    1  UNL1        0.1426
      8 C         141.7191  142.4930  166.5332 C.3     1  UNL1        0.0800
      9 C         140.8538  143.1291  165.4860 C.3     1  UNL1        0.0221
     10 C         143.7045  141.6151  165.1059 C.3     1  UNL1        0.0861
     11 N         143.1955  142.3580  166.3055 N.3     1  UNL1       -0.2939
     12 H         143.5722  143.3041  166.2477 H       1  UNL1        0.1235
     13 O         141.6547  139.5497  167.1104 O.3     1  UNL1       -0.4537
     14 C         140.8510  139.1228  165.9181 C.ar    1  UNL1        0.1462
     15 C         139.3592  139.2797  165.9239 C.ar    1  UNL1        0.0384
     16 C         138.5554  138.8527  164.7316 C.ar    1  UNL1        0.0154
     17 C         139.2434  138.2689  163.5334 C.ar    1  UNL1        0.0684
     18 CL        138.4397  137.8420  162.3410 Cl      1  UNL1       -0.0814
     19 C         140.7352  138.1120  163.5274 C.ar    1  UNL1        0.0712
     20 CL        141.4232  137.5282  162.3292 Cl      1  UNL1       -0.0813
     21 C         141.5390  138.5390  164.7198 C.ar    1  UNL1        0.0497
@<TRIPOS>BOND
     1    10    11    1
     2    11     8    1
     3     8     9    1
     4     8     1    1
     5     1     2   ar
     6     2     3   ar
     7     3     4    1
     8     3     5   ar
     9     5     6   ar
    10     6     7   ar
    11     7    13    1
    12    13    14    1
    13    14    15   ar
    14    15    16   ar
    15    16    17   ar
    16    17    18    1
    17    17    19   ar
    18    19    20    1
    19    19    21   ar
    20     7     1   ar
    21    21    14   ar
    22    11    12    1
