@<TRIPOS>MOLECULE
*****
 41 45 0 0 0
SMALL
GASTEIGER

@<TRIPOS>ATOM
      1 C         140.0362  145.7186  161.5137 C.3     1  UNL1        0.1700
      2 O         139.0125  146.7878  161.2707 O.3     1  UNL1       -0.3793
      3 H         138.5646  146.6207  160.4267 H       1  UNL1        0.2106
      4 C         140.2252  144.6193  160.5108 C.3     1  UNL1        0.2358
      5 O         139.1006  143.6711  160.2164 O.3     1  UNL1       -0.4727
      6 C         139.4020  141.2451  161.0958 C.ar    1  UNL1        0.0686
      7 C         139.0534  140.1669  162.0787 C.ar    1  UNL1        0.0059
      8 C         138.0549  140.4366  163.1650 C.ar    1  UNL1        0.0003
      9 C         137.4049  141.7845  163.2685 C.ar    1  UNL1        0.0031
     10 C         137.7535  142.8627  162.2857 C.ar    1  UNL1        0.0370
     11 C         138.7520  142.5930  161.1993 C.ar    1  UNL1        0.1413
     12 O         139.9395  140.4621  158.6776 O.2     1  UNL1       -0.2912
     13 C         140.4005  140.9754  160.0095 C.2     1  UNL1        0.1763
     14 C         141.8601  141.2189  160.2550 C.3     1  UNL1        0.0739
     15 C         142.7429  140.0932  160.7060 C.3     1  UNL1        0.0345
     16 C         143.6924  140.2964  161.8493 C.ar    1  UNL1       -0.0217
     17 C         143.7381  139.3027  162.9720 C.ar    1  UNL1       -0.0043
     18 C         144.6876  139.5059  164.1152 C.ar    1  UNL1       -0.0003
     19 C         145.5915  140.7028  164.1358 C.ar    1  UNL1       -0.0000
     20 C         145.5458  141.6965  163.0131 C.ar    1  UNL1       -0.0003
     21 C         144.5963  141.4933  161.8699 C.ar    1  UNL1       -0.0043
     22 C         140.8709  145.7487  162.7596 C.3     1  UNL1        0.1056
     23 N         140.8927  144.5619  163.6767 N.3     1  UNL1       -0.2682
     24 C         141.9399  143.5015  163.5062 C.3     1  UNL1        0.0897
     25 C         141.9617  142.3147  164.4232 C.3     1  UNL1        0.0901
     26 N         140.9364  142.1882  165.5107 N.3     1  UNL1       -0.2644
     27 C         139.8892  143.2485  165.6811 C.3     1  UNL1        0.0901
     28 C         139.8674  144.4353  164.7641 C.3     1  UNL1        0.0897
     29 C         140.9582  141.0013  166.4277 C.3     1  UNL1        0.1031
     30 C         141.7808  141.0373  167.6815 C.ar    1  UNL1       -0.0036
     31 C         141.7973  139.8530  168.6019 C.ar    1  UNL1       -0.0026
     32 C         142.6199  139.8890  169.8558 C.ar    1  UNL1       -0.0003
     33 C         143.4259  141.1093  170.1892 C.ar    1  UNL1       -0.0000
     34 C         143.4093  142.2936  169.2689 C.ar    1  UNL1       -0.0003
     35 C         142.5868  142.2576  168.0150 C.ar    1  UNL1       -0.0026
     36 C         140.1575  139.7785  166.0909 C.ar    1  UNL1       -0.0036
     37 C         140.7084  138.7606  165.1368 C.ar    1  UNL1       -0.0026
     38 C         139.9076  137.5377  164.8000 C.ar    1  UNL1       -0.0003
     39 C         138.5560  137.3327  165.4173 C.ar    1  UNL1       -0.0000
     40 C         138.0051  138.3506  166.3715 C.ar    1  UNL1       -0.0003
     41 C         138.8058  139.5735  166.7083 C.ar    1  UNL1       -0.0026
@<TRIPOS>BOND
     1    12    13    2
     2    13    14    1
     3    14    15    1
     4    15    16    1
     5    16    17   ar
     6    17    18   ar
     7    18    19   ar
     8    19    20   ar
     9    20    21   ar
    10    13     6    1
    11     6     7   ar
    12     7     8   ar
    13     8     9   ar
    14     9    10   ar
    15    10    11   ar
    16    11     5    1
    17     5     4    1
    18     4     1    1
    19     1     2    1
    20     1    22    1
    21    22    23    1
    22    23    24    1
    23    24    25    1
    24    25    26    1
    25    26    29    1
    26    29    30    1
    27    30    31   ar
    28    31    32   ar
    29    32    33   ar
    30    33    34   ar
    31    34    35   ar
    32    29    36    1
    33    36    37   ar
    34    37    38   ar
    35    38    39   ar
    36    39    40   ar
    37    40    41   ar
    38    26    27    1
    39    27    28    1
    40    21    16   ar
    41    11     6   ar
    42    28    23    1
    43    35    30   ar
    44    41    36   ar
    45     2     3    1
@<TRIPOS>MOLECULE
*****
 41 45 0 0 0
SMALL
GASTEIGER

@<TRIPOS>ATOM
      1 C         139.9936  145.7087  161.2458 C.3     1  UNL1        0.1700
      2 O         138.9530  146.7649  161.0179 O.3     1  UNL1       -0.3793
      3 H         138.4795  146.5794  160.1919 H       1  UNL1        0.2106
      4 C         140.1598  144.5939  160.2562 C.3     1  UNL1        0.2358
      5 O         139.0421  143.6195  160.0293 O.3     1  UNL1       -0.4727
      6 C         139.4025  141.2336  160.9923 C.ar    1  UNL1        0.0686
      7 C         139.0964  140.1896  162.0250 C.ar    1  UNL1        0.0059
      8 C         138.1239  140.4876  163.1274 C.ar    1  UNL1        0.0003
      9 C         137.4573  141.8296  163.1971 C.ar    1  UNL1        0.0031
     10 C         137.7634  142.8736  162.1644 C.ar    1  UNL1        0.0370
     11 C         138.7360  142.5755  161.0620 C.ar    1  UNL1        0.1413
     12 O         139.8754  140.4695  158.5546 O.2     1  UNL1       -0.2912
     13 C         140.3751  140.9356  159.8899 C.2     1  UNL1        0.1763
     14 C         141.8474  141.1038  160.1228 C.3     1  UNL1        0.0739
     15 C         142.6505  139.9724  160.6928 C.3     1  UNL1        0.0345
     16 C         143.5845  140.2192  161.8404 C.ar    1  UNL1       -0.0217
     17 C         144.4897  141.4152  161.8269 C.ar    1  UNL1       -0.0043
     18 C         145.4236  141.6619  162.9744 C.ar    1  UNL1       -0.0003
     19 C         145.4523  140.7127  164.1355 C.ar    1  UNL1       -0.0000
     20 C         144.5471  139.5167  164.1490 C.ar    1  UNL1       -0.0003
     21 C         143.6132  139.2700  163.0015 C.ar    1  UNL1       -0.0043
     22 C         140.8678  145.7675  162.4633 C.3     1  UNL1        0.1056
     23 N         140.8287  144.6554  163.4691 N.3     1  UNL1       -0.2682
     24 C         139.7673  144.6395  164.5288 C.3     1  UNL1        0.0897
     25 C         139.7282  143.5274  165.5346 C.3     1  UNL1        0.0901
     26 N         140.7505  142.4311  165.4807 N.3     1  UNL1       -0.2644
     27 C         141.8119  142.4470  164.4209 C.3     1  UNL1        0.0901
     28 C         141.8510  143.5591  163.4151 C.3     1  UNL1        0.0897
     29 C         140.7114  141.3190  166.4865 C.3     1  UNL1        0.1031
     30 C         140.0714  140.0095  166.1322 C.ar    1  UNL1       -0.0036
     31 C         140.7859  139.0443  165.2334 C.ar    1  UNL1       -0.0026
     32 C         140.1459  137.7348  164.8791 C.ar    1  UNL1       -0.0003
     33 C         138.7913  137.3905  165.4236 C.ar    1  UNL1       -0.0000
     34 C         138.0768  138.3556  166.3224 C.ar    1  UNL1       -0.0003
     35 C         138.7168  139.6652  166.6767 C.ar    1  UNL1       -0.0026
     36 C         141.3123  141.5164  167.8466 C.ar    1  UNL1       -0.0036
     37 C         142.3681  140.5741  168.3440 C.ar    1  UNL1       -0.0026
     38 C         142.9691  140.7715  169.7042 C.ar    1  UNL1       -0.0003
     39 C         142.5142  141.9112  170.5668 C.ar    1  UNL1       -0.0000
     40 C         141.4584  142.8535  170.0694 C.ar    1  UNL1       -0.0003
     41 C         140.8575  142.6561  168.7093 C.ar    1  UNL1       -0.0026
@<TRIPOS>BOND
     1    12    13    2
     2    13    14    1
     3    14    15    1
     4    15    16    1
     5    16    17   ar
     6    17    18   ar
     7    18    19   ar
     8    19    20   ar
     9    20    21   ar
    10    13     6    1
    11     6     7   ar
    12     7     8   ar
    13     8     9   ar
    14     9    10   ar
    15    10    11   ar
    16    11     5    1
    17     5     4    1
    18     4     1    1
    19     1     2    1
    20     1    22    1
    21    22    23    1
    22    23    24    1
    23    24    25    1
    24    25    26    1
    25    26    29    1
    26    29    30    1
    27    30    31   ar
    28    31    32   ar
    29    32    33   ar
    30    33    34   ar
    31    34    35   ar
    32    29    36    1
    33    36    37   ar
    34    37    38   ar
    35    38    39   ar
    36    39    40   ar
    37    40    41   ar
    38    26    27    1
    39    27    28    1
    40    21    16   ar
    41    11     6   ar
    42    28    23    1
    43    35    30   ar
    44    41    36   ar
    45     2     3    1
@<TRIPOS>MOLECULE
*****
 41 45 0 0 0
SMALL
GASTEIGER

@<TRIPOS>ATOM
      1 C         138.0302  138.2773  166.8605 C.3     1  UNL1        0.1700
      2 O         136.7551  138.0379  167.6135 O.3     1  UNL1       -0.3793
      3 H         136.6357  138.7352  168.2771 H       1  UNL1        0.2106
      4 C         138.8884  139.4609  167.1960 C.3     1  UNL1        0.2358
      5 O         139.6895  139.4711  168.4642 O.3     1  UNL1       -0.4727
      6 C         141.8310  140.9419  168.4800 C.ar    1  UNL1        0.0686
      7 C         142.5469  142.1897  168.9049 C.ar    1  UNL1        0.0059
      8 C         141.8370  143.2144  169.7391 C.ar    1  UNL1        0.0003
      9 C         140.4112  142.9914  170.1484 C.ar    1  UNL1        0.0031
     10 C         139.6953  141.7436  169.7234 C.ar    1  UNL1        0.0370
     11 C         140.4053  140.7189  168.8892 C.ar    1  UNL1        0.1413
     12 O         143.2126  138.7486  168.3042 O.2     1  UNL1       -0.2912
     13 C         142.5409  139.9171  167.6458 C.2     1  UNL1        0.1763
     14 C         142.5791  140.0608  166.1531 C.3     1  UNL1        0.0739
     15 C         141.7827  141.1409  165.4830 C.3     1  UNL1        0.0345
     16 C         142.4425  142.4334  165.1031 C.ar    1  UNL1       -0.0217
     17 C         141.7277  143.4075  164.2143 C.ar    1  UNL1       -0.0043
     18 C         142.3875  144.6999  163.8345 C.ar    1  UNL1       -0.0003
     19 C         143.7621  145.0181  164.3435 C.ar    1  UNL1       -0.0000
     20 C         144.4770  144.0440  165.2323 C.ar    1  UNL1       -0.0003
     21 C         143.8171  142.7516  165.6122 C.ar    1  UNL1       -0.0043
     22 C         138.4470  137.3332  165.7720 C.3     1  UNL1        0.1056
     23 N         139.2960  137.8247  164.6373 N.3     1  UNL1       -0.2682
     24 C         138.8001  138.9308  163.7538 C.3     1  UNL1        0.0897
     25 C         139.6492  139.4222  162.6191 C.3     1  UNL1        0.0901
     26 N         140.9942  138.8076  162.3679 N.3     1  UNL1       -0.2644
     27 C         141.4901  137.7015  163.2514 C.3     1  UNL1        0.0901
     28 C         140.6411  137.2101  164.3861 C.3     1  UNL1        0.0897
     29 C         141.8433  139.2991  161.2332 C.3     1  UNL1        0.1031
     30 C         141.6798  138.7091  159.8639 C.ar    1  UNL1       -0.0036
     31 C         140.3694  138.8345  159.1447 C.ar    1  UNL1       -0.0026
     32 C         140.2060  138.2445  157.7753 C.ar    1  UNL1       -0.0003
     33 C         141.3529  137.5290  157.1252 C.ar    1  UNL1       -0.0000
     34 C         142.6632  137.4035  157.8443 C.ar    1  UNL1       -0.0003
     35 C         142.8267  137.9936  159.2137 C.ar    1  UNL1       -0.0026
     36 C         142.8558  140.3806  161.4678 C.ar    1  UNL1       -0.0036
     37 C         142.6987  141.7133  160.7977 C.ar    1  UNL1       -0.0026
     38 C         143.7113  142.7948  161.0324 C.ar    1  UNL1       -0.0003
     39 C         144.8810  142.5436  161.9372 C.ar    1  UNL1       -0.0000
     40 C         145.0381  141.2108  162.6073 C.ar    1  UNL1       -0.0003
     41 C         144.0256  140.1294  162.3727 C.ar    1  UNL1       -0.0026
@<TRIPOS>BOND
     1    12    13    2
     2    13    14    1
     3    14    15    1
     4    15    16    1
     5    16    17   ar
     6    17    18   ar
     7    18    19   ar
     8    19    20   ar
     9    20    21   ar
    10    13     6    1
    11     6     7   ar
    12     7     8   ar
    13     8     9   ar
    14     9    10   ar
    15    10    11   ar
    16    11     5    1
    17     5     4    1
    18     4     1    1
    19     1     2    1
    20     1    22    1
    21    22    23    1
    22    23    24    1
    23    24    25    1
    24    25    26    1
    25    26    29    1
    26    29    30    1
    27    30    31   ar
    28    31    32   ar
    29    32    33   ar
    30    33    34   ar
    31    34    35   ar
    32    29    36    1
    33    36    37   ar
    34    37    38   ar
    35    38    39   ar
    36    39    40   ar
    37    40    41   ar
    38    26    27    1
    39    27    28    1
    40    21    16   ar
    41    11     6   ar
    42    28    23    1
    43    35    30   ar
    44    41    36   ar
    45     2     3    1
@<TRIPOS>MOLECULE
*****
 41 45 0 0 0
SMALL
GASTEIGER

@<TRIPOS>ATOM
      1 C         140.1924  145.9018  161.3394 C.3     1  UNL1        0.1700
      2 O         138.9048  146.6415  161.1275 O.3     1  UNL1       -0.3793
      3 H         138.5977  146.5021  160.2180 H       1  UNL1        0.2106
      4 C         140.7942  145.1074  160.2183 C.3     1  UNL1        0.2358
      5 O         141.0718  143.6446  160.4003 O.3     1  UNL1       -0.4727
      6 C         141.0773  141.4022  159.0881 C.ar    1  UNL1        0.0686
      7 C         140.3639  140.3922  158.2391 C.ar    1  UNL1        0.0059
      8 C         138.9315  140.6144  157.8533 C.ar    1  UNL1        0.0003
      9 C         138.2125  141.8468  158.3165 C.ar    1  UNL1        0.0031
     10 C         138.9260  142.8568  159.1655 C.ar    1  UNL1        0.0370
     11 C         140.3584  142.6345  159.5513 C.ar    1  UNL1        0.1413
     12 O         143.6057  141.8729  158.7199 O.2     1  UNL1       -0.2912
     13 C         142.5097  141.1800  159.4740 C.2     1  UNL1        0.1763
     14 C         142.8461  140.2648  160.6139 C.3     1  UNL1        0.0739
     15 C         142.0442  140.3183  161.8804 C.3     1  UNL1        0.0345
     16 C         140.6231  139.8381  161.8892 C.ar    1  UNL1       -0.0217
     17 C         140.2911  138.4683  161.3762 C.ar    1  UNL1       -0.0043
     18 C         138.8701  137.9881  161.3851 C.ar    1  UNL1       -0.0003
     19 C         137.7811  138.8779  161.9070 C.ar    1  UNL1       -0.0000
     20 C         138.1130  140.2478  162.4199 C.ar    1  UNL1       -0.0003
     21 C         139.5341  140.7279  162.4111 C.ar    1  UNL1       -0.0043
     22 C         140.8782  145.9564  162.6723 C.3     1  UNL1        0.1056
     23 N         140.7423  144.8126  163.6331 N.3     1  UNL1       -0.2682
     24 C         141.9612  144.0657  164.0873 C.3     1  UNL1        0.0897
     25 C         141.8253  142.9219  165.0481 C.3     1  UNL1        0.0901
     26 N         140.4705  142.5249  165.5548 N.3     1  UNL1       -0.2644
     27 C         139.2515  143.2718  165.1006 C.3     1  UNL1        0.0901
     28 C         139.3874  144.4156  164.1397 C.3     1  UNL1        0.0897
     29 C         140.3346  141.3811  166.5156 C.3     1  UNL1        0.1031
     30 C         140.0968  139.9927  166.0001 C.ar    1  UNL1       -0.0036
     31 C         141.2424  139.1842  165.4671 C.ar    1  UNL1       -0.0026
     32 C         141.0046  137.7958  164.9515 C.ar    1  UNL1       -0.0003
     33 C         139.6214  137.2159  164.9689 C.ar    1  UNL1       -0.0000
     34 C         138.4758  138.0244  165.5018 C.ar    1  UNL1       -0.0003
     35 C         138.7136  139.4129  166.0174 C.ar    1  UNL1       -0.0026
     36 C         140.4364  141.6257  167.9920 C.ar    1  UNL1       -0.0036
     37 C         140.6215  140.4718  168.9324 C.ar    1  UNL1       -0.0026
     38 C         140.7234  140.7164  170.4088 C.ar    1  UNL1       -0.0003
     39 C         140.6401  142.1148  170.9449 C.ar    1  UNL1       -0.0000
     40 C         140.4549  143.2687  170.0045 C.ar    1  UNL1       -0.0003
     41 C         140.3531  143.0242  168.5281 C.ar    1  UNL1       -0.0026
@<TRIPOS>BOND
     1    12    13    2
     2    13    14    1
     3    14    15    1
     4    15    16    1
     5    16    17   ar
     6    17    18   ar
     7    18    19   ar
     8    19    20   ar
     9    20    21   ar
    10    13     6    1
    11     6     7   ar
    12     7     8   ar
    13     8     9   ar
    14     9    10   ar
    15    10    11   ar
    16    11     5    1
    17     5     4    1
    18     4     1    1
    19     1     2    1
    20     1    22    1
    21    22    23    1
    22    23    24    1
    23    24    25    1
    24    25    26    1
    25    26    29    1
    26    29    30    1
    27    30    31   ar
    28    31    32   ar
    29    32    33   ar
    30    33    34   ar
    31    34    35   ar
    32    29    36    1
    33    36    37   ar
    34    37    38   ar
    35    38    39   ar
    36    39    40   ar
    37    40    41   ar
    38    26    27    1
    39    27    28    1
    40    21    16   ar
    41    11     6   ar
    42    28    23    1
    43    35    30   ar
    44    41    36   ar
    45     2     3    1
@<TRIPOS>MOLECULE
*****
 41 45 0 0 0
SMALL
GASTEIGER

@<TRIPOS>ATOM
      1 C         140.1892  145.9829  161.3384 C.3     1  UNL1        0.1700
      2 O         138.8934  146.7012  161.1034 O.3     1  UNL1       -0.3793
      3 H         138.6179  146.5777  160.1816 H       1  UNL1        0.2106
      4 C         140.8424  145.2285  160.2185 C.3     1  UNL1        0.2358
      5 O         140.9749  143.7363  160.2963 O.3     1  UNL1       -0.4727
      6 C         139.1004  142.0608  159.6417 C.ar    1  UNL1        0.0686
      7 C         138.4331  141.1940  158.6153 C.ar    1  UNL1        0.0059
      8 C         138.9732  141.1359  157.2172 C.ar    1  UNL1        0.0003
      9 C         140.1806  141.9447  156.8454 C.ar    1  UNL1        0.0031
     10 C         140.8479  142.8115  157.8717 C.ar    1  UNL1        0.0370
     11 C         140.3077  142.8695  159.2700 C.ar    1  UNL1        0.1413
     12 O         137.6132  143.2136  161.4332 O.2     1  UNL1       -0.2912
     13 C         138.5603  142.1189  161.0399 C.2     1  UNL1        0.1763
     14 C         138.9672  141.0822  162.0448 C.3     1  UNL1        0.0739
     15 C         139.4936  139.7558  161.5828 C.3     1  UNL1        0.0345
     16 C         140.9627  139.4632  161.6617 C.ar    1  UNL1       -0.0217
     17 C         141.4928  138.1480  161.1726 C.ar    1  UNL1       -0.0043
     18 C         142.9618  137.8554  161.2515 C.ar    1  UNL1       -0.0003
     19 C         143.9008  138.8781  161.8194 C.ar    1  UNL1       -0.0000
     20 C         143.3707  140.1933  162.3085 C.ar    1  UNL1       -0.0003
     21 C         141.9016  140.4858  162.2296 C.ar    1  UNL1       -0.0043
     22 C         140.8317  146.0190  162.6933 C.3     1  UNL1        0.1056
     23 N         140.7486  144.8232  163.5950 N.3     1  UNL1       -0.2682
     24 C         139.4173  144.3655  164.1128 C.3     1  UNL1        0.0897
     25 C         139.3341  143.1696  165.0145 C.3     1  UNL1        0.0901
     26 N         140.5822  142.4314  165.3983 N.3     1  UNL1       -0.2644
     27 C         141.9135  142.8891  164.8804 C.3     1  UNL1        0.0901
     28 C         141.9967  144.0850  163.9788 C.3     1  UNL1        0.0897
     29 C         140.4991  141.2356  166.2999 C.3     1  UNL1        0.1031
     30 C         140.2438  141.4185  167.7667 C.ar    1  UNL1       -0.0036
     31 C         139.6118  140.3144  168.5614 C.ar    1  UNL1       -0.0026
     32 C         139.3566  140.4973  170.0282 C.ar    1  UNL1       -0.0003
     33 C         139.7334  141.7843  170.7002 C.ar    1  UNL1       -0.0000
     34 C         140.3654  142.8883  169.9056 C.ar    1  UNL1       -0.0003
     35 C         140.6206  142.7055  168.4388 C.ar    1  UNL1       -0.0026
     36 C         140.6711  139.8568  165.7349 C.ar    1  UNL1       -0.0036
     37 C         139.4783  139.0966  165.2357 C.ar    1  UNL1       -0.0026
     38 C         139.6504  137.7178  164.6706 C.ar    1  UNL1       -0.0003
     39 C         141.0153  137.0992  164.6047 C.ar    1  UNL1       -0.0000
     40 C         142.2081  137.8594  165.1039 C.ar    1  UNL1       -0.0003
     41 C         142.0361  139.2382  165.6690 C.ar    1  UNL1       -0.0026
@<TRIPOS>BOND
     1    12    13    2
     2    13    14    1
     3    14    15    1
     4    15    16    1
     5    16    17   ar
     6    17    18   ar
     7    18    19   ar
     8    19    20   ar
     9    20    21   ar
    10    13     6    1
    11     6     7   ar
    12     7     8   ar
    13     8     9   ar
    14     9    10   ar
    15    10    11   ar
    16    11     5    1
    17     5     4    1
    18     4     1    1
    19     1     2    1
    20     1    22    1
    21    22    23    1
    22    23    24    1
    23    24    25    1
    24    25    26    1
    25    26    29    1
    26    29    30    1
    27    30    31   ar
    28    31    32   ar
    29    32    33   ar
    30    33    34   ar
    31    34    35   ar
    32    29    36    1
    33    36    37   ar
    34    37    38   ar
    35    38    39   ar
    36    39    40   ar
    37    40    41   ar
    38    26    27    1
    39    27    28    1
    40    21    16   ar
    41    11     6   ar
    42    28    23    1
    43    35    30   ar
    44    41    36   ar
    45     2     3    1
@<TRIPOS>MOLECULE
*****
 41 45 0 0 0
SMALL
GASTEIGER

@<TRIPOS>ATOM
      1 C         143.2986  137.5990  160.2201 C.3     1  UNL1        0.1700
      2 O         143.0338  136.1736  159.8352 O.3     1  UNL1       -0.3793
      3 H         142.4719  136.1511  159.0449 H       1  UNL1        0.2106
      4 C         142.7140  138.7162  159.4077 C.3     1  UNL1        0.2358
      5 O         141.2998  139.1563  159.6457 O.3     1  UNL1       -0.4727
      6 C         139.6002  141.0910  159.9891 C.ar    1  UNL1        0.0686
      7 C         139.3105  142.5147  160.3623 C.ar    1  UNL1        0.0059
      8 C         140.4307  143.4272  160.7652 C.ar    1  UNL1        0.0003
      9 C         141.8407  142.9161  160.7950 C.ar    1  UNL1        0.0031
     10 C         142.1304  141.4925  160.4218 C.ar    1  UNL1        0.0370
     11 C         141.0101  140.5799  160.0189 C.ar    1  UNL1        0.1413
     12 O         138.1522  139.9889  158.1348 O.2     1  UNL1       -0.2912
     13 C         138.4800  140.1785  159.5862 C.2     1  UNL1        0.1763
     14 C         137.6876  139.4554  160.6347 C.3     1  UNL1        0.0739
     15 C         138.3538  138.4314  161.5050 C.3     1  UNL1        0.0345
     16 C         138.4081  138.6308  162.9907 C.ar    1  UNL1       -0.0217
     17 C         138.7502  137.4799  163.8899 C.ar    1  UNL1       -0.0043
     18 C         138.8045  137.6794  165.3755 C.ar    1  UNL1       -0.0003
     19 C         138.5168  139.0296  165.9620 C.ar    1  UNL1       -0.0000
     20 C         138.1748  140.1805  165.0629 C.ar    1  UNL1       -0.0003
     21 C         138.1204  139.9810  163.5772 C.ar    1  UNL1       -0.0043
     22 C         144.1480  137.9072  161.4174 C.3     1  UNL1        0.1056
     23 N         143.6384  138.8355  162.4796 N.3     1  UNL1       -0.2682
     24 C         144.4753  139.9982  162.9242 C.3     1  UNL1        0.0897
     25 C         143.9657  140.9265  163.9865 C.3     1  UNL1        0.0901
     26 N         142.6190  140.6922  164.6042 N.3     1  UNL1       -0.2644
     27 C         141.7821  139.5295  164.1597 C.3     1  UNL1        0.0901
     28 C         142.2917  138.6012  163.0974 C.3     1  UNL1        0.0897
     29 C         142.1094  141.6205  165.6665 C.3     1  UNL1        0.1031
     30 C         142.4692  141.3854  167.1036 C.ar    1  UNL1       -0.0036
     31 C         142.1127  140.0862  167.7632 C.ar    1  UNL1       -0.0026
     32 C         142.4725  139.8511  169.2003 C.ar    1  UNL1       -0.0003
     33 C         143.1888  140.9153  169.9778 C.ar    1  UNL1       -0.0000
     34 C         143.5452  142.2144  169.3183 C.ar    1  UNL1       -0.0003
     35 C         143.1854  142.4496  167.8812 C.ar    1  UNL1       -0.0026
     36 C         141.2399  142.7839  165.2917 C.ar    1  UNL1       -0.0036
     37 C         139.8679  142.9162  165.8835 C.ar    1  UNL1       -0.0026
     38 C         138.9984  144.0796  165.5087 C.ar    1  UNL1       -0.0003
     39 C         139.5009  145.1107  164.5421 C.ar    1  UNL1       -0.0000
     40 C         140.8729  144.9784  163.9503 C.ar    1  UNL1       -0.0003
     41 C         141.7424  143.8151  164.3251 C.ar    1  UNL1       -0.0026
@<TRIPOS>BOND
     1    12    13    2
     2    13    14    1
     3    14    15    1
     4    15    16    1
     5    16    17   ar
     6    17    18   ar
     7    18    19   ar
     8    19    20   ar
     9    20    21   ar
    10    13     6    1
    11     6     7   ar
    12     7     8   ar
    13     8     9   ar
    14     9    10   ar
    15    10    11   ar
    16    11     5    1
    17     5     4    1
    18     4     1    1
    19     1     2    1
    20     1    22    1
    21    22    23    1
    22    23    24    1
    23    24    25    1
    24    25    26    1
    25    26    29    1
    26    29    30    1
    27    30    31   ar
    28    31    32   ar
    29    32    33   ar
    30    33    34   ar
    31    34    35   ar
    32    29    36    1
    33    36    37   ar
    34    37    38   ar
    35    38    39   ar
    36    39    40   ar
    37    40    41   ar
    38    26    27    1
    39    27    28    1
    40    21    16   ar
    41    11     6   ar
    42    28    23    1
    43    35    30   ar
    44    41    36   ar
    45     2     3    1
@<TRIPOS>MOLECULE
*****
 41 45 0 0 0
SMALL
GASTEIGER

@<TRIPOS>ATOM
      1 C         140.2291  144.9056  159.8934 C.3     1  UNL1        0.1700
      2 O         140.0418  145.8816  158.7697 O.3     1  UNL1       -0.3793
      3 H         139.7629  145.4061  157.9716 H       1  UNL1        0.2106
      4 C         139.9840  143.4434  159.6655 C.3     1  UNL1        0.2358
      5 O         138.5939  142.8902  159.7736 O.3     1  UNL1       -0.4727
      6 C         138.3882  140.3781  160.4036 C.ar    1  UNL1        0.0686
      7 C         138.0814  139.3132  161.4145 C.ar    1  UNL1        0.0059
      8 C         137.6735  139.6956  162.8063 C.ar    1  UNL1        0.0003
      9 C         137.5724  141.1429  163.1874 C.ar    1  UNL1        0.0031
     10 C         137.8792  142.2078  162.1765 C.ar    1  UNL1        0.0370
     11 C         138.2871  141.8253  160.7845 C.ar    1  UNL1        0.1413
     12 O         137.8850  140.2872  157.8563 O.2     1  UNL1       -0.2912
     13 C         138.7961  139.9957  159.0117 C.2     1  UNL1        0.1763
     14 C         140.1152  139.3217  158.7751 C.3     1  UNL1        0.0739
     15 C         141.3932  140.0555  159.0551 C.3     1  UNL1        0.0345
     16 C         142.2314  139.6768  160.2401 C.ar    1  UNL1       -0.0217
     17 C         143.3410  140.5787  160.6928 C.ar    1  UNL1       -0.0043
     18 C         144.1792  140.2000  161.8777 C.ar    1  UNL1       -0.0003
     19 C         143.9076  138.9193  162.6099 C.ar    1  UNL1       -0.0000
     20 C         142.7979  138.0173  162.1572 C.ar    1  UNL1       -0.0003
     21 C         141.9598  138.3961  160.9723 C.ar    1  UNL1       -0.0043
     22 C         140.6615  145.3919  161.2448 C.3     1  UNL1        0.1056
     23 N         140.6535  144.4556  162.4167 N.3     1  UNL1       -0.2682
     24 C         139.7775  144.7425  163.6000 C.3     1  UNL1        0.0897
     25 C         139.7695  143.8062  164.7718 C.3     1  UNL1        0.0901
     26 N         140.6376  142.5830  164.7605 N.3     1  UNL1       -0.2644
     27 C         141.5136  142.2961  163.5772 C.3     1  UNL1        0.0901
     28 C         141.5216  143.2324  162.4053 C.3     1  UNL1        0.0897
     29 C         140.6296  141.6467  165.9323 C.3     1  UNL1        0.1031
     30 C         141.2155  142.0808  167.2431 C.ar    1  UNL1       -0.0036
     31 C         140.3556  142.7791  168.2546 C.ar    1  UNL1       -0.0026
     32 C         140.9415  143.2131  169.5654 C.ar    1  UNL1       -0.0003
     33 C         142.3873  142.9489  169.8648 C.ar    1  UNL1       -0.0000
     34 C         143.2473  142.2507  168.8535 C.ar    1  UNL1       -0.0003
     35 C         142.6614  141.8166  167.5426 C.ar    1  UNL1       -0.0026
     36 C         140.0357  140.2764  165.7934 C.ar    1  UNL1       -0.0036
     37 C         140.7382  139.2339  164.9750 C.ar    1  UNL1       -0.0026
     38 C         140.1442  137.8635  164.8361 C.ar    1  UNL1       -0.0003
     39 C         138.8478  137.5356  165.5156 C.ar    1  UNL1       -0.0000
     40 C         138.1453  138.5780  166.3339 C.ar    1  UNL1       -0.0003
     41 C         138.7392  139.9484  166.4729 C.ar    1  UNL1       -0.0026
@<TRIPOS>BOND
     1    12    13    2
     2    13    14    1
     3    14    15    1
     4    15    16    1
     5    16    17   ar
     6    17    18   ar
     7    18    19   ar
     8    19    20   ar
     9    20    21   ar
    10    13     6    1
    11     6     7   ar
    12     7     8   ar
    13     8     9   ar
    14     9    10   ar
    15    10    11   ar
    16    11     5    1
    17     5     4    1
    18     4     1    1
    19     1     2    1
    20     1    22    1
    21    22    23    1
    22    23    24    1
    23    24    25    1
    24    25    26    1
    25    26    29    1
    26    29    30    1
    27    30    31   ar
    28    31    32   ar
    29    32    33   ar
    30    33    34   ar
    31    34    35   ar
    32    29    36    1
    33    36    37   ar
    34    37    38   ar
    35    38    39   ar
    36    39    40   ar
    37    40    41   ar
    38    26    27    1
    39    27    28    1
    40    21    16   ar
    41    11     6   ar
    42    28    23    1
    43    35    30   ar
    44    41    36   ar
    45     2     3    1
@<TRIPOS>MOLECULE
*****
 41 45 0 0 0
SMALL
GASTEIGER

@<TRIPOS>ATOM
      1 C         143.3606  137.6238  160.1999 C.3     1  UNL1        0.1700
      2 O         142.9615  136.2142  159.8779 O.3     1  UNL1       -0.3793
      3 H         142.4314  136.2057  159.0656 H       1  UNL1        0.2106
      4 C         142.9295  138.7482  159.3056 C.3     1  UNL1        0.2358
      5 O         141.5061  139.2212  159.3285 O.3     1  UNL1       -0.4727
      6 C         139.7568  141.0595  159.8854 C.ar    1  UNL1        0.0686
      7 C         139.4358  142.4500  160.3476 C.ar    1  UNL1        0.0059
      8 C         140.5433  143.3925  160.7151 C.ar    1  UNL1        0.0003
      9 C         141.9718  142.9447  160.6203 C.ar    1  UNL1        0.0031
     10 C         142.2927  141.5542  160.1581 C.ar    1  UNL1        0.0370
     11 C         141.1852  140.6116  159.7907 C.ar    1  UNL1        0.1413
     12 O         138.4249  139.7469  158.0818 O.2     1  UNL1       -0.2912
     13 C         138.6493  140.1169  159.5180 C.2     1  UNL1        0.1763
     14 C         137.7662  139.5443  160.5868 C.3     1  UNL1        0.0739
     15 C         138.2727  138.4400  161.4663 C.3     1  UNL1        0.0345
     16 C         138.3690  138.6462  162.9490 C.ar    1  UNL1       -0.0217
     17 C         138.0791  139.9945  163.5391 C.ar    1  UNL1       -0.0043
     18 C         138.1753  140.2007  165.0217 C.ar    1  UNL1       -0.0003
     19 C         138.5614  139.0587  165.9142 C.ar    1  UNL1       -0.0000
     20 C         138.8514  137.7104  165.3242 C.ar    1  UNL1       -0.0003
     21 C         138.7551  137.5042  163.8416 C.ar    1  UNL1       -0.0043
     22 C         144.1909  137.9090  161.4161 C.3     1  UNL1        0.1056
     23 N         143.6724  138.8322  162.4786 N.3     1  UNL1       -0.2682
     24 C         142.2691  138.6790  162.9857 C.3     1  UNL1        0.0897
     25 C         141.7506  139.6021  164.0482 C.3     1  UNL1        0.0901
     26 N         142.6353  140.6785  164.6036 N.3     1  UNL1       -0.2644
     27 C         144.0387  140.8317  164.0965 C.3     1  UNL1        0.0901
     28 C         144.5572  139.9085  163.0340 C.3     1  UNL1        0.0897
     29 C         142.1168  141.6016  165.6661 C.3     1  UNL1        0.1031
     30 C         141.2543  142.7695  165.2893 C.ar    1  UNL1       -0.0036
     31 C         141.7431  143.7691  164.2832 C.ar    1  UNL1       -0.0026
     32 C         140.8806  144.9370  163.9064 C.ar    1  UNL1       -0.0003
     33 C         139.5294  145.1055  164.5356 C.ar    1  UNL1       -0.0000
     34 C         139.0407  144.1060  165.5416 C.ar    1  UNL1       -0.0003
     35 C         139.9032  142.9380  165.9185 C.ar    1  UNL1       -0.0026
     36 C         142.4608  141.3568  167.1055 C.ar    1  UNL1       -0.0036
     37 C         143.1200  142.4354  167.9130 C.ar    1  UNL1       -0.0026
     38 C         143.4639  142.1906  169.3524 C.ar    1  UNL1       -0.0003
     39 C         143.1487  140.8672  169.9842 C.ar    1  UNL1       -0.0000
     40 C         142.4894  139.7886  169.1767 C.ar    1  UNL1       -0.0003
     41 C         142.1455  140.0334  167.7374 C.ar    1  UNL1       -0.0026
@<TRIPOS>BOND
     1    12    13    2
     2    13    14    1
     3    14    15    1
     4    15    16    1
     5    16    17   ar
     6    17    18   ar
     7    18    19   ar
     8    19    20   ar
     9    20    21   ar
    10    13     6    1
    11     6     7   ar
    12     7     8   ar
    13     8     9   ar
    14     9    10   ar
    15    10    11   ar
    16    11     5    1
    17     5     4    1
    18     4     1    1
    19     1     2    1
    20     1    22    1
    21    22    23    1
    22    23    24    1
    23    24    25    1
    24    25    26    1
    25    26    29    1
    26    29    30    1
    27    30    31   ar
    28    31    32   ar
    29    32    33   ar
    30    33    34   ar
    31    34    35   ar
    32    29    36    1
    33    36    37   ar
    34    37    38   ar
    35    38    39   ar
    36    39    40   ar
    37    40    41   ar
    38    26    27    1
    39    27    28    1
    40    21    16   ar
    41    11     6   ar
    42    28    23    1
    43    35    30   ar
    44    41    36   ar
    45     2     3    1
@<TRIPOS>MOLECULE
*****
 41 45 0 0 0
SMALL
GASTEIGER

@<TRIPOS>ATOM
      1 C         138.4355  141.5420  157.5893 C.3     1  UNL1        0.1700
      2 O         137.3207  142.5345  157.4397 O.3     1  UNL1       -0.3793
      3 H         137.5940  143.2383  156.8306 H       1  UNL1        0.2106
      4 C         139.7223  141.7415  156.8448 C.3     1  UNL1        0.2358
      5 O         140.7257  142.7424  157.3362 O.3     1  UNL1       -0.4727
      6 C         142.0127  143.3996  159.4953 C.ar    1  UNL1        0.0686
      7 C         142.9479  143.0383  160.6110 C.ar    1  UNL1        0.0059
      8 C         143.5314  141.6583  160.6832 C.ar    1  UNL1        0.0003
      9 C         143.1797  140.6397  159.6398 C.ar    1  UNL1        0.0031
     10 C         142.2445  141.0011  158.5241 C.ar    1  UNL1        0.0370
     11 C         141.6609  142.3811  158.4519 C.ar    1  UNL1        0.1413
     12 O         142.1758  145.8737  158.7192 O.2     1  UNL1       -0.2912
     13 C         141.4291  144.7795  159.4231 C.2     1  UNL1        0.1763
     14 C         140.0989  145.0654  160.0547 C.3     1  UNL1        0.0739
     15 C         140.0304  145.8130  161.3532 C.3     1  UNL1        0.0345
     16 C         139.7253  145.0796  162.6257 C.ar    1  UNL1       -0.0217
     17 C         140.8379  144.6973  163.5562 C.ar    1  UNL1       -0.0043
     18 C         140.5328  143.9640  164.8286 C.ar    1  UNL1       -0.0003
     19 C         139.1151  143.6130  165.1705 C.ar    1  UNL1       -0.0000
     20 C         138.0025  143.9953  164.2400 C.ar    1  UNL1       -0.0003
     21 C         138.3076  144.7286  162.9676 C.ar    1  UNL1       -0.0043
     22 C         138.2634  140.3501  158.4835 C.3     1  UNL1        0.1056
     23 N         138.9473  140.3086  159.8179 N.3     1  UNL1       -0.2682
     24 C         139.6093  139.0453  160.2824 C.3     1  UNL1        0.0897
     25 C         140.2932  139.0038  161.6168 C.3     1  UNL1        0.0901
     26 N         140.3150  140.2256  162.4867 N.3     1  UNL1       -0.2644
     27 C         139.6530  141.4888  162.0222 C.3     1  UNL1        0.0901
     28 C         138.9691  141.5303  160.6878 C.3     1  UNL1        0.0897
     29 C         140.9989  140.1841  163.8211 C.3     1  UNL1        0.1031
     30 C         142.4820  140.3901  163.9105 C.ar    1  UNL1       -0.0036
     31 C         143.4128  139.2274  163.7327 C.ar    1  UNL1       -0.0026
     32 C         144.8959  139.4335  163.8222 C.ar    1  UNL1       -0.0003
     33 C         145.4481  140.8023  164.0894 C.ar    1  UNL1       -0.0000
     34 C         144.5174  141.9650  164.2672 C.ar    1  UNL1       -0.0003
     35 C         143.0342  141.7589  164.1778 C.ar    1  UNL1       -0.0026
     36 C         140.1997  139.9365  165.0660 C.ar    1  UNL1       -0.0036
     37 C         140.7601  140.3155  166.4048 C.ar    1  UNL1       -0.0026
     38 C         139.9609  140.0679  167.6498 C.ar    1  UNL1       -0.0003
     39 C         138.6013  139.4412  167.5560 C.ar    1  UNL1       -0.0000
     40 C         138.0409  139.0622  166.2173 C.ar    1  UNL1       -0.0003
     41 C         138.8401  139.3098  164.9723 C.ar    1  UNL1       -0.0026
@<TRIPOS>BOND
     1    12    13    2
     2    13    14    1
     3    14    15    1
     4    15    16    1
     5    16    17   ar
     6    17    18   ar
     7    18    19   ar
     8    19    20   ar
     9    20    21   ar
    10    13     6    1
    11     6     7   ar
    12     7     8   ar
    13     8     9   ar
    14     9    10   ar
    15    10    11   ar
    16    11     5    1
    17     5     4    1
    18     4     1    1
    19     1     2    1
    20     1    22    1
    21    22    23    1
    22    23    24    1
    23    24    25    1
    24    25    26    1
    25    26    29    1
    26    29    30    1
    27    30    31   ar
    28    31    32   ar
    29    32    33   ar
    30    33    34   ar
    31    34    35   ar
    32    29    36    1
    33    36    37   ar
    34    37    38   ar
    35    38    39   ar
    36    39    40   ar
    37    40    41   ar
    38    26    27    1
    39    27    28    1
    40    21    16   ar
    41    11     6   ar
    42    28    23    1
    43    35    30   ar
    44    41    36   ar
    45     2     3    1
