@<TRIPOS>MOLECULE
*****
 30 33 0 0 0
SMALL
GASTEIGER

@<TRIPOS>ATOM
      1 C         138.6790  139.0789  162.7150 C.ar    1  UNL1        0.2490
      2 N         139.1183  138.0118  161.7569 N.ar    1  UNL1       -0.1863
      3 C         139.4012  138.3593  160.3254 C.ar    1  UNL1        0.2225
      4 N         139.2447  139.7740  159.8520 N.ar    1  UNL1       -0.1420
      5 N         138.8054  140.8412  160.8102 N.ar    1  UNL1       -0.2193
      6 C         138.5656  142.3114  160.6341 C.ar    1  UNL1        0.1371
      7 C         138.1346  142.8725  161.9567 C.ar    1  UNL1        0.1552
      8 C         138.1080  141.7491  162.9503 C.ar    1  UNL1        0.0359
      9 C         137.7327  141.8613  164.3982 C.3     1  UNL1        0.0360
     10 C         138.5225  140.4936  162.2417 C.ar    1  UNL1        0.1353
     11 O         138.3961  138.7314  164.1465 O.3     1  UNL1       -0.4328
     12 C         141.2348  140.8676  171.1466 C.3     1  UNL1        0.0521
     13 C         140.9662  140.4809  169.7225 C.2     1  UNL1        0.0591
     14 C         139.6282  140.1325  169.1408 C.2     1  UNL1        0.0182
     15 C         139.8234  139.8109  167.6887 C.2     1  UNL1        0.0455
     16 C         138.8614  139.4012  166.6133 C.2     1  UNL1        0.1752
     17 F         137.4027  139.2517  166.9291 F       1  UNL1       -0.2009
     18 C         139.3581  139.1411  165.2220 C.2     1  UNL1        0.1706
     19 C         140.8169  139.2907  164.9062 C.2     1  UNL1        0.0201
     20 C         141.7789  139.7004  165.9817 C.3     1  UNL1        0.0751
     21 C         141.2822  139.9605  167.3730 C.2     1  UNL1        0.0653
     22 N         141.9884  140.3746  168.6299 N.2     1  UNL1       -0.2536
     23 O         137.7906  144.3055  162.2366 O.3     1  UNL1       -0.4741
     24 C         138.8588  145.2602  162.6810 C.3     1  UNL1        0.2073
     25 C         140.2144  144.7440  163.0631 C.3     1  UNL1        0.0726
     26 C         141.3334  144.7641  162.0643 C.3     1  UNL1        0.1547
     27 S         142.7463  144.5419  162.5165 S.O2    1  UNL1       -0.0081
     28 C         144.1591  144.3198  162.9687 C.3     1  UNL1        0.1760
     29 O         143.1096  144.0587  161.1438 O.2     1  UNL1       -0.1729
     30 O         142.3829  145.0252  163.8893 O.2     1  UNL1       -0.1729
@<TRIPOS>BOND
     1    12    13    1
     2    13    14    2
     3    14    15    1
     4    15    16    2
     5    16    17    1
     6    16    18    1
     7    18    11    1
     8    11     1    1
     9     1     2   ar
    10     2     3   ar
    11     3     4   ar
    12     4     5   ar
    13     5     6   ar
    14     6     7   ar
    15     7    23    1
    16    23    24    1
    17    24    25    1
    18    25    26    1
    19    26    27    1
    20    27    28    1
    21    27    29    2
    22    27    30    2
    23     7     8   ar
    24     8     9    1
    25     8    10   ar
    26    18    19    2
    27    19    20    1
    28    20    21    1
    29    21    22    2
    30    22    13    1
    31    21    15    1
    32    10     1   ar
    33    10     5   ar
@<TRIPOS>MOLECULE
*****
 30 33 0 0 0
SMALL
GASTEIGER

@<TRIPOS>ATOM
      1 C         144.0163  140.5085  163.2457 C.ar    1  UNL1        0.2490
      2 N         144.2986  139.0916  162.8424 N.ar    1  UNL1       -0.1863
      3 C         144.0561  138.6517  161.4290 C.ar    1  UNL1        0.2225
      4 N         143.5315  139.6286  160.4189 N.ar    1  UNL1       -0.1420
      5 N         143.2492  141.0455  160.8222 N.ar    1  UNL1       -0.2193
      6 C         142.7312  142.2240  160.0523 C.ar    1  UNL1        0.1371
      7 C         142.6535  143.3923  160.9898 C.ar    1  UNL1        0.1552
      8 C         143.1235  142.9359  162.3391 C.ar    1  UNL1        0.0359
      9 C         143.2101  143.7814  163.5751 C.3     1  UNL1        0.0360
     10 C         143.4917  141.4855  162.2356 C.ar    1  UNL1        0.1353
     11 O         144.2588  140.9485  164.6590 O.3     1  UNL1       -0.4328
     12 C         139.6648  142.7992  170.7495 C.3     1  UNL1        0.0521
     13 C         140.3594  142.2264  169.5497 C.2     1  UNL1        0.0591
     14 C         141.5976  142.7730  168.9033 C.2     1  UNL1        0.0182
     15 C         141.9412  141.8908  167.7398 C.2     1  UNL1        0.0455
     16 C         143.0557  141.9407  166.7371 C.2     1  UNL1        0.1752
     17 F         144.0816  143.0326  166.8098 F       1  UNL1       -0.2009
     18 C         143.1443  140.8987  165.6617 C.2     1  UNL1        0.1706
     19 C         142.1184  139.8068  165.5891 C.2     1  UNL1        0.0201
     20 C         141.0039  139.7569  166.5918 C.3     1  UNL1        0.0751
     21 C         140.9153  140.7989  167.6671 C.2     1  UNL1        0.0653
     22 N         139.9377  141.0063  168.7857 N.2     1  UNL1       -0.2536
     23 O         142.1876  144.7744  160.6395 O.3     1  UNL1       -0.4741
     24 C         140.7682  145.1781  160.9082 C.3     1  UNL1        0.2073
     25 C         140.4019  145.8024  162.2220 C.3     1  UNL1        0.0726
     26 C         139.6321  145.0128  163.2389 C.3     1  UNL1        0.1547
     27 S         138.7458  143.8855  162.7989 S.O2    1  UNL1       -0.0081
     28 C         137.8595  142.7581  162.3589 C.3     1  UNL1        0.1760
     29 O         139.7910  142.8975  163.2249 O.2     1  UNL1       -0.1729
     30 O         137.7006  144.8734  162.3730 O.2     1  UNL1       -0.1729
@<TRIPOS>BOND
     1    12    13    1
     2    13    14    2
     3    14    15    1
     4    15    16    2
     5    16    17    1
     6    16    18    1
     7    18    11    1
     8    11     1    1
     9     1     2   ar
    10     2     3   ar
    11     3     4   ar
    12     4     5   ar
    13     5     6   ar
    14     6     7   ar
    15     7    23    1
    16    23    24    1
    17    24    25    1
    18    25    26    1
    19    26    27    1
    20    27    28    1
    21    27    29    2
    22    27    30    2
    23     7     8   ar
    24     8     9    1
    25     8    10   ar
    26    18    19    2
    27    19    20    1
    28    20    21    1
    29    21    22    2
    30    22    13    1
    31    21    15    1
    32    10     1   ar
    33    10     5   ar
@<TRIPOS>MOLECULE
*****
 30 33 0 0 0
SMALL
GASTEIGER

@<TRIPOS>ATOM
      1 C         138.3210  139.9738  163.5677 C.ar    1  UNL1        0.2490
      2 N         138.5326  138.5048  163.7849 N.ar    1  UNL1       -0.1863
      3 C         138.8119  137.6064  162.6167 C.ar    1  UNL1        0.2225
      4 N         138.8797  138.1770  161.2311 N.ar    1  UNL1       -0.1420
      5 N         138.6682  139.6460  161.0139 N.ar    1  UNL1       -0.2193
      6 C         138.6756  140.4883  159.7727 C.ar    1  UNL1        0.1371
      7 C         138.4009  141.9073  160.1739 C.ar    1  UNL1        0.1552
      8 C         138.2236  141.9419  161.6630 C.ar    1  UNL1        0.0359
      9 C         137.9323  143.1603  162.4881 C.3     1  UNL1        0.0360
     10 C         138.3889  140.5444  162.1821 C.ar    1  UNL1        0.1353
     11 O         138.0417  140.8722  164.7359 O.3     1  UNL1       -0.4328
     12 C         142.9939  140.3062  170.8004 C.3     1  UNL1        0.0521
     13 C         142.1818  140.6641  169.5911 C.2     1  UNL1        0.0591
     14 C         141.0731  139.8450  168.9996 C.2     1  UNL1        0.0182
     15 C         140.5418  140.5786  167.8039 C.2     1  UNL1        0.0455
     16 C         139.4484  140.2523  166.8304 C.2     1  UNL1        0.1752
     17 F         138.6680  138.9797  166.9779 F       1  UNL1       -0.2009
     18 C         139.1352  141.1985  165.7094 C.2     1  UNL1        0.1706
     19 C         139.9155  142.4710  165.5620 C.2     1  UNL1        0.0201
     20 C         141.0090  142.7973  166.5356 C.3     1  UNL1        0.0751
     21 C         141.3222  141.8511  167.6565 C.2     1  UNL1        0.0653
     22 N         142.3357  141.9040  168.7610 N.2     1  UNL1       -0.2536
     23 O         138.3179  143.0849  159.2485 O.3     1  UNL1       -0.4741
     24 C         139.4043  143.3266  158.2429 C.3     1  UNL1        0.2073
     25 C         140.4996  144.3065  158.5430 C.3     1  UNL1        0.0726
     26 C         140.2349  145.4733  159.4478 C.3     1  UNL1        0.1547
     27 S         140.6174  145.4009  160.8964 S.O2    1  UNL1       -0.0081
     28 C         140.9999  145.3285  162.3450 C.3     1  UNL1        0.1760
     29 O         139.3418  146.0971  161.2680 O.2     1  UNL1       -0.1729
     30 O         141.8930  144.7046  160.5248 O.2     1  UNL1       -0.1729
@<TRIPOS>BOND
     1    12    13    1
     2    13    14    2
     3    14    15    1
     4    15    16    2
     5    16    17    1
     6    16    18    1
     7    18    11    1
     8    11     1    1
     9     1     2   ar
    10     2     3   ar
    11     3     4   ar
    12     4     5   ar
    13     5     6   ar
    14     6     7   ar
    15     7    23    1
    16    23    24    1
    17    24    25    1
    18    25    26    1
    19    26    27    1
    20    27    28    1
    21    27    29    2
    22    27    30    2
    23     7     8   ar
    24     8     9    1
    25     8    10   ar
    26    18    19    2
    27    19    20    1
    28    20    21    1
    29    21    22    2
    30    22    13    1
    31    21    15    1
    32    10     1   ar
    33    10     5   ar
@<TRIPOS>MOLECULE
*****
 30 33 0 0 0
SMALL
GASTEIGER

@<TRIPOS>ATOM
      1 C         140.8050  138.9532  162.4849 C.ar    1  UNL1        0.2490
      2 N         140.0528  137.8574  161.7897 N.ar    1  UNL1       -0.1863
      3 C         139.3180  138.1445  160.5140 C.ar    1  UNL1        0.2225
      4 N         139.3353  139.5274  159.9334 N.ar    1  UNL1       -0.1420
      5 N         140.0875  140.6233  160.6286 N.ar    1  UNL1       -0.2193
      6 C         140.2829  142.0731  160.2974 C.ar    1  UNL1        0.1371
      7 C         141.1385  142.6821  161.3684 C.ar    1  UNL1        0.1552
      8 C         141.4719  141.6086  162.3616 C.ar    1  UNL1        0.0359
      9 C         142.3080  141.7777  163.5954 C.3     1  UNL1        0.0360
     10 C         140.8223  140.3362  161.9044 C.ar    1  UNL1        0.1353
     11 O         141.5398  138.6661  163.7607 O.3     1  UNL1       -0.4328
     12 C         140.8573  140.8798  171.2612 C.3     1  UNL1        0.0521
     13 C         140.6998  140.4512  169.8323 C.2     1  UNL1        0.0591
     14 C         141.8138  140.1894  168.8625 C.2     1  UNL1        0.0182
     15 C         141.2032  139.7856  167.5532 C.2     1  UNL1        0.0455
     16 C         141.8125  139.4084  166.2355 C.2     1  UNL1        0.1752
     17 F         143.3039  139.3962  166.0749 F       1  UNL1       -0.2009
     18 C         140.9305  139.0433  165.0784 C.2     1  UNL1        0.1706
     19 C         139.4392  139.0555  165.2391 C.2     1  UNL1        0.0201
     20 C         138.8299  139.4327  166.5569 C.3     1  UNL1        0.0751
     21 C         139.7119  139.7978  167.7139 C.2     1  UNL1        0.0653
     22 N         139.4008  140.2091  169.1225 N.2     1  UNL1       -0.2536
     23 O         141.5828  144.1133  161.4346 O.3     1  UNL1       -0.4741
     24 C         141.0848  145.0030  162.5347 C.3     1  UNL1        0.2073
     25 C         139.6149  145.2629  162.6818 C.3     1  UNL1        0.0726
     26 C         138.8158  144.4984  163.6953 C.3     1  UNL1        0.1547
     27 S         138.1812  143.1922  163.3197 S.O2    1  UNL1       -0.0081
     28 C         137.5466  141.8860  162.9440 C.3     1  UNL1        0.1760
     29 O         137.7629  143.7743  162.0020 O.2     1  UNL1       -0.1729
     30 O         138.5995  142.6100  164.6373 O.2     1  UNL1       -0.1729
@<TRIPOS>BOND
     1    12    13    1
     2    13    14    2
     3    14    15    1
     4    15    16    2
     5    16    17    1
     6    16    18    1
     7    18    11    1
     8    11     1    1
     9     1     2   ar
    10     2     3   ar
    11     3     4   ar
    12     4     5   ar
    13     5     6   ar
    14     6     7   ar
    15     7    23    1
    16    23    24    1
    17    24    25    1
    18    25    26    1
    19    26    27    1
    20    27    28    1
    21    27    29    2
    22    27    30    2
    23     7     8   ar
    24     8     9    1
    25     8    10   ar
    26    18    19    2
    27    19    20    1
    28    20    21    1
    29    21    22    2
    30    22    13    1
    31    21    15    1
    32    10     1   ar
    33    10     5   ar
@<TRIPOS>MOLECULE
*****
 30 33 0 0 0
SMALL
GASTEIGER

@<TRIPOS>ATOM
      1 C         138.8992  139.8048  164.5869 C.ar    1  UNL1        0.2490
      2 N         137.8931  140.9158  164.5289 N.ar    1  UNL1       -0.1863
      3 C         137.6655  141.6552  163.2438 C.ar    1  UNL1        0.2225
      4 N         138.4441  141.2837  162.0167 N.ar    1  UNL1       -0.1420
      5 N         139.4502  140.1727  162.0747 N.ar    1  UNL1       -0.2193
      6 C         140.3598  139.5871  161.0357 C.ar    1  UNL1        0.1371
      7 C         141.1496  138.4857  161.6786 C.ar    1  UNL1        0.1552
      8 C         140.7280  138.3907  163.1150 C.ar    1  UNL1        0.0359
      9 C         141.2628  137.4229  164.1286 C.3     1  UNL1        0.0360
     10 C         139.6777  139.4333  163.3598 C.ar    1  UNL1        0.1353
     11 O         139.1268  139.0654  165.8720 O.3     1  UNL1       -0.4328
     12 C         144.3883  142.9736  170.1923 C.3     1  UNL1        0.0521
     13 C         143.2223  142.2345  169.6057 C.2     1  UNL1        0.0591
     14 C         143.1259  141.7100  168.2037 C.2     1  UNL1        0.0182
     15 C         141.7920  141.0414  168.0495 C.2     1  UNL1        0.0455
     16 C         141.1463  140.3456  166.8881 C.2     1  UNL1        0.1752
     17 F         141.8744  140.2343  165.5814 F       1  UNL1       -0.2009
     18 C         139.7725  139.7611  167.0334 C.2     1  UNL1        0.1706
     19 C         139.0444  139.8724  168.3401 C.2     1  UNL1        0.0201
     20 C         139.6902  140.5683  169.5016 C.3     1  UNL1        0.0751
     21 C         141.0640  141.1527  169.3563 C.2     1  UNL1        0.0653
     22 N         141.9480  141.8901  170.3180 N.2     1  UNL1       -0.2536
     23 O         142.1800  137.6298  161.0036 O.3     1  UNL1       -0.4741
     24 C         143.6390  137.9174  161.1994 C.3     1  UNL1        0.2073
     25 C         144.1458  139.3257  161.1000 C.3     1  UNL1        0.0726
     26 C         144.4537  140.1017  162.3462 C.3     1  UNL1        0.1547
     27 S         144.4653  141.6013  162.3123 S.O2    1  UNL1       -0.0081
     28 C         144.4769  143.1009  162.2784 C.3     1  UNL1        0.1760
     29 O         145.8938  141.6006  162.7697 O.2     1  UNL1       -0.1729
     30 O         143.0367  141.6020  161.8549 O.2     1  UNL1       -0.1729
@<TRIPOS>BOND
     1    12    13    1
     2    13    14    2
     3    14    15    1
     4    15    16    2
     5    16    17    1
     6    16    18    1
     7    18    11    1
     8    11     1    1
     9     1     2   ar
    10     2     3   ar
    11     3     4   ar
    12     4     5   ar
    13     5     6   ar
    14     6     7   ar
    15     7    23    1
    16    23    24    1
    17    24    25    1
    18    25    26    1
    19    26    27    1
    20    27    28    1
    21    27    29    2
    22    27    30    2
    23     7     8   ar
    24     8     9    1
    25     8    10   ar
    26    18    19    2
    27    19    20    1
    28    20    21    1
    29    21    22    2
    30    22    13    1
    31    21    15    1
    32    10     1   ar
    33    10     5   ar
@<TRIPOS>MOLECULE
*****
 30 33 0 0 0
SMALL
GASTEIGER

@<TRIPOS>ATOM
      1 C         140.4507  143.9802  163.9572 C.ar    1  UNL1        0.2490
      2 N         141.3313  145.0774  163.4368 N.ar    1  UNL1       -0.1863
      3 C         141.3623  145.3812  161.9682 C.ar    1  UNL1        0.2225
      4 N         140.5128  144.5879  161.0201 N.ar    1  UNL1       -0.1420
      5 N         139.6323  143.4907  161.5406 N.ar    1  UNL1       -0.2193
      6 C         138.6919  142.5465  160.8520 C.ar    1  UNL1        0.1371
      7 C         138.0796  141.6592  161.8949 C.ar    1  UNL1        0.1552
      8 C         138.6417  142.0550  163.2281 C.ar    1  UNL1        0.0359
      9 C         138.3035  141.4288  164.5486 C.3     1  UNL1        0.0360
     10 C         139.6012  143.1869  163.0091 C.ar    1  UNL1        0.1353
     11 O         140.4197  143.6764  165.4258 O.3     1  UNL1       -0.4328
     12 C         142.9398  138.1134  170.3578 C.3     1  UNL1        0.0521
     13 C         142.6227  139.0404  169.2220 C.2     1  UNL1        0.0591
     14 C         141.7155  140.2334  169.2846 C.2     1  UNL1        0.0182
     15 C         141.6892  140.8675  167.9255 C.2     1  UNL1        0.0455
     16 C         140.9691  142.0708  167.3931 C.2     1  UNL1        0.1752
     17 F         140.0782  142.8719  168.2957 F       1  UNL1       -0.2009
     18 C         141.1398  142.4731  165.9581 C.2     1  UNL1        0.1706
     19 C         142.0306  141.6720  165.0556 C.2     1  UNL1        0.0201
     20 C         142.7508  140.4686  165.5880 C.3     1  UNL1        0.0751
     21 C         142.5800  140.0664  167.0229 C.2     1  UNL1        0.0653
     22 N         143.1569  138.9372  167.8242 N.2     1  UNL1       -0.2536
     23 O         137.0808  140.5677  161.6480 O.3     1  UNL1       -0.4741
     24 C         137.5054  139.3038  160.9608 C.3     1  UNL1        0.2073
     25 C         138.6605  138.5106  161.4963 C.3     1  UNL1        0.0726
     26 C         138.6353  138.0101  162.9101 C.3     1  UNL1        0.1547
     27 S         139.9137  137.6184  163.5900 S.O2    1  UNL1       -0.0081
     28 C         141.1922  137.2268  164.2698 C.3     1  UNL1        0.1760
     29 O         140.5587  137.4031  162.2529 O.2     1  UNL1       -0.1729
     30 O         139.2687  137.8337  164.9270 O.2     1  UNL1       -0.1729
@<TRIPOS>BOND
     1    12    13    1
     2    13    14    2
     3    14    15    1
     4    15    16    2
     5    16    17    1
     6    16    18    1
     7    18    11    1
     8    11     1    1
     9     1     2   ar
    10     2     3   ar
    11     3     4   ar
    12     4     5   ar
    13     5     6   ar
    14     6     7   ar
    15     7    23    1
    16    23    24    1
    17    24    25    1
    18    25    26    1
    19    26    27    1
    20    27    28    1
    21    27    29    2
    22    27    30    2
    23     7     8   ar
    24     8     9    1
    25     8    10   ar
    26    18    19    2
    27    19    20    1
    28    20    21    1
    29    21    22    2
    30    22    13    1
    31    21    15    1
    32    10     1   ar
    33    10     5   ar
@<TRIPOS>MOLECULE
*****
 30 33 0 0 0
SMALL
GASTEIGER

@<TRIPOS>ATOM
      1 C         143.7060  140.1416  162.5018 C.ar    1  UNL1        0.2490
      2 N         144.6256  141.1546  161.8869 N.ar    1  UNL1       -0.1863
      3 C         144.3016  141.7459  160.5469 C.ar    1  UNL1        0.2225
      4 N         143.0581  141.3241  159.8218 N.ar    1  UNL1       -0.1420
      5 N         142.1386  140.3111  160.4367 N.ar    1  UNL1       -0.2193
      6 C         140.8507  139.7059  159.9622 C.ar    1  UNL1        0.1371
      7 C         140.3787  138.7407  161.0088 C.ar    1  UNL1        0.1552
      8 C         141.3748  138.7493  162.1303 C.ar    1  UNL1        0.0359
      9 C         141.2970  137.9310  163.3850 C.3     1  UNL1        0.0360
     10 C         142.4625  139.7198  161.7767 C.ar    1  UNL1        0.1353
     11 O         144.0299  139.5504  163.8417 O.3     1  UNL1       -0.4328
     12 C         141.4462  140.8248  171.1440 C.3     1  UNL1        0.0521
     13 C         141.9610  140.8682  169.7358 C.2     1  UNL1        0.0591
     14 C         142.2143  139.6824  168.8527 C.2     1  UNL1        0.0182
     15 C         142.7228  140.1863  167.5346 C.2     1  UNL1        0.0455
     16 C         143.1381  139.4753  166.2808 C.2     1  UNL1        0.1752
     17 F         143.0771  137.9781  166.2124 F       1  UNL1       -0.2009
     18 C         143.6146  140.2614  165.0955 C.2     1  UNL1        0.1706
     19 C         143.6757  141.7586  165.1639 C.2     1  UNL1        0.0201
     20 C         143.2603  142.4697  166.4177 C.3     1  UNL1        0.0751
     21 C         142.7839  141.6835  167.6030 C.2     1  UNL1        0.0653
     22 N         142.3131  142.1049  168.9634 N.2     1  UNL1       -0.2536
     23 O         139.1298  137.9123  160.9452 O.3     1  UNL1       -0.4741
     24 C         137.9178  138.3213  161.7286 C.3     1  UNL1        0.2073
     25 C         137.5472  139.7709  161.8345 C.3     1  UNL1        0.0726
     26 C         137.8208  140.5242  163.1025 C.3     1  UNL1        0.1547
     27 S         137.7694  142.0233  163.1102 S.O2    1  UNL1       -0.0081
     28 C         137.7180  143.5224  163.1179 C.3     1  UNL1        0.1760
     29 O         137.6015  142.0252  161.6196 O.2     1  UNL1       -0.1729
     30 O         137.9373  142.0214  164.6008 O.2     1  UNL1       -0.1729
@<TRIPOS>BOND
     1    12    13    1
     2    13    14    2
     3    14    15    1
     4    15    16    2
     5    16    17    1
     6    16    18    1
     7    18    11    1
     8    11     1    1
     9     1     2   ar
    10     2     3   ar
    11     3     4   ar
    12     4     5   ar
    13     5     6   ar
    14     6     7   ar
    15     7    23    1
    16    23    24    1
    17    24    25    1
    18    25    26    1
    19    26    27    1
    20    27    28    1
    21    27    29    2
    22    27    30    2
    23     7     8   ar
    24     8     9    1
    25     8    10   ar
    26    18    19    2
    27    19    20    1
    28    20    21    1
    29    21    22    2
    30    22    13    1
    31    21    15    1
    32    10     1   ar
    33    10     5   ar
@<TRIPOS>MOLECULE
*****
 30 33 0 0 0
SMALL
GASTEIGER

@<TRIPOS>ATOM
      1 C         141.9001  138.7751  162.3274 C.ar    1  UNL1        0.2490
      2 N         142.4227  137.5230  161.6879 N.ar    1  UNL1       -0.1863
      3 C         143.3367  137.6117  160.5018 C.ar    1  UNL1        0.2225
      4 N         143.7280  138.9527  159.9553 N.ar    1  UNL1       -0.1420
      5 N         143.2055  140.2048  160.5948 N.ar    1  UNL1       -0.2193
      6 C         143.4158  141.6561  160.2794 C.ar    1  UNL1        0.1371
      7 C         142.6319  142.4642  161.2705 C.ar    1  UNL1        0.1552
      8 C         141.9370  141.5124  162.1985 C.ar    1  UNL1        0.0359
      9 C         141.0444  141.8906  163.3431 C.3     1  UNL1        0.0360
     10 C         142.2915  140.1160  161.7809 C.ar    1  UNL1        0.1353
     11 O         140.9862  138.6863  163.5135 O.3     1  UNL1       -0.4328
     12 C         141.5131  140.7515  171.0687 C.3     1  UNL1        0.0521
     13 C         141.6794  140.2560  169.6627 C.2     1  UNL1        0.0591
     14 C         140.6595  140.3532  168.5671 C.2     1  UNL1        0.0182
     15 C         141.2447  139.7336  167.3327 C.2     1  UNL1        0.0455
     16 C         140.6980  139.5445  165.9488 C.2     1  UNL1        0.1752
     17 F         139.3164  140.0246  165.6161 F       1  UNL1       -0.2009
     18 C         141.5329  138.8753  164.8975 C.2     1  UNL1        0.1706
     19 C         142.9145  138.3952  165.2302 C.2     1  UNL1        0.0201
     20 C         143.4612  138.5843  166.6142 C.3     1  UNL1        0.0751
     21 C         142.6263  139.2535  167.6654 C.2     1  UNL1        0.0653
     22 N         142.8950  139.5764  169.1054 N.2     1  UNL1       -0.2536
     23 O         142.5562  143.9614  161.3242 O.3     1  UNL1       -0.4741
     24 C         142.8149  144.6796  162.6154 C.3     1  UNL1        0.2073
     25 C         141.6875  145.3591  163.3346 C.3     1  UNL1        0.0726
     26 C         140.4394  145.7315  162.5905 C.3     1  UNL1        0.1547
     27 S         139.1892  144.9226  162.7708 S.O2    1  UNL1       -0.0081
     28 C         137.9390  144.1136  162.9510 C.3     1  UNL1        0.1760
     29 O         139.0910  144.7432  161.2848 O.2     1  UNL1       -0.1729
     30 O         139.2874  145.1019  164.2568 O.2     1  UNL1       -0.1729
@<TRIPOS>BOND
     1    12    13    1
     2    13    14    2
     3    14    15    1
     4    15    16    2
     5    16    17    1
     6    16    18    1
     7    18    11    1
     8    11     1    1
     9     1     2   ar
    10     2     3   ar
    11     3     4   ar
    12     4     5   ar
    13     5     6   ar
    14     6     7   ar
    15     7    23    1
    16    23    24    1
    17    24    25    1
    18    25    26    1
    19    26    27    1
    20    27    28    1
    21    27    29    2
    22    27    30    2
    23     7     8   ar
    24     8     9    1
    25     8    10   ar
    26    18    19    2
    27    19    20    1
    28    20    21    1
    29    21    22    2
    30    22    13    1
    31    21    15    1
    32    10     1   ar
    33    10     5   ar
@<TRIPOS>MOLECULE
*****
 30 33 0 0 0
SMALL
GASTEIGER

@<TRIPOS>ATOM
      1 C         138.3197  139.2376  161.5186 C.ar    1  UNL1        0.2490
      2 N         137.3029  139.9468  160.6743 N.ar    1  UNL1       -0.1863
      3 C         137.6110  140.2699  159.2422 C.ar    1  UNL1        0.2225
      4 N         138.9360  139.8838  158.6546 N.ar    1  UNL1       -0.1420
      5 N         139.9528  139.1746  159.4990 N.ar    1  UNL1       -0.2193
      6 C         141.3339  138.6729  159.1975 C.ar    1  UNL1        0.1371
      7 C         141.8794  138.0398  160.4431 C.ar    1  UNL1        0.1552
      8 C         140.8354  138.1501  161.5145 C.ar    1  UNL1        0.0359
      9 C         140.9601  137.6474  162.9222 C.3     1  UNL1        0.0360
     10 C         139.6447  138.8514  160.9310 C.ar    1  UNL1        0.1353
     11 O         138.0116  138.9144  162.9506 O.3     1  UNL1       -0.4328
     12 C         140.3958  141.2238  170.0644 C.3     1  UNL1        0.0521
     13 C         140.0306  141.0426  168.6209 C.2     1  UNL1        0.0591
     14 C         139.4046  139.8208  168.0164 C.2     1  UNL1        0.0182
     15 C         139.2145  140.0745  166.5503 C.2     1  UNL1        0.0455
     16 C         138.6440  139.2283  165.4510 C.2     1  UNL1        0.1752
     17 F         138.1355  137.8497  165.7526 F       1  UNL1       -0.2009
     18 C         138.5821  139.7606  164.0499 C.2     1  UNL1        0.1706
     19 C         139.0906  141.1392  163.7483 C.2     1  UNL1        0.0201
     20 C         139.6611  141.9854  164.8477 C.3     1  UNL1        0.0751
     21 C         139.7230  141.4530  166.2486 C.2     1  UNL1        0.0653
     22 N         140.2274  142.0513  167.5283 N.2     1  UNL1       -0.2536
     23 O         143.2315  137.4074  160.5913 O.3     1  UNL1       -0.4741
     24 C         144.2996  138.0983  161.3862 C.3     1  UNL1        0.2073
     25 C         144.2631  139.5883  161.5554 C.3     1  UNL1        0.0726
     26 C         144.6506  140.2038  162.8673 C.3     1  UNL1        0.1547
     27 S         143.7991  139.9794  164.0816 S.O2    1  UNL1       -0.0081
     28 C         142.9477  139.7550  165.2960 C.3     1  UNL1        0.1760
     29 O         142.6754  140.7318  163.4327 O.2     1  UNL1       -0.1729
     30 O         144.9229  139.2269  164.7305 O.2     1  UNL1       -0.1729
@<TRIPOS>BOND
     1    12    13    1
     2    13    14    2
     3    14    15    1
     4    15    16    2
     5    16    17    1
     6    16    18    1
     7    18    11    1
     8    11     1    1
     9     1     2   ar
    10     2     3   ar
    11     3     4   ar
    12     4     5   ar
    13     5     6   ar
    14     6     7   ar
    15     7    23    1
    16    23    24    1
    17    24    25    1
    18    25    26    1
    19    26    27    1
    20    27    28    1
    21    27    29    2
    22    27    30    2
    23     7     8   ar
    24     8     9    1
    25     8    10   ar
    26    18    19    2
    27    19    20    1
    28    20    21    1
    29    21    22    2
    30    22    13    1
    31    21    15    1
    32    10     1   ar
    33    10     5   ar
