@<TRIPOS>MOLECULE
*****
 29 32 0 0 0
SMALL
GASTEIGER

@<TRIPOS>ATOM
      1 N         144.0978  139.8373  164.0914 N.3     1  UNL1       -0.2700
      2 C         143.5906  139.0822  162.8988 C.3     1  UNL1        0.0897
      3 C         142.4121  138.1648  163.0376 C.3     1  UNL1        0.0897
      4 N         141.7408  138.0024  164.3692 N.3     1  UNL1       -0.2700
      5 C         142.2480  138.7575  165.5618 C.3     1  UNL1        0.0897
      6 C         143.4265  139.6750  165.4230 C.3     1  UNL1        0.0897
      7 C         145.2764  140.7548  163.9526 C.3     1  UNL1        0.0769
      8 C         145.1357  142.2115  164.2816 C.3     1  UNL1        0.0437
      9 C         141.7316  144.5908  162.5493 C.ar    1  UNL1        0.0790
     10 C         142.9448  144.3013  161.7160 C.ar    1  UNL1        0.0108
     11 C         144.0794  143.5082  162.2934 C.ar    1  UNL1       -0.0035
     12 C         144.0010  143.0046  163.7042 C.ar    1  UNL1       -0.0199
     13 C         142.7879  143.2941  164.5376 C.ar    1  UNL1        0.0079
     14 C         141.6531  144.0872  163.9601 C.ar    1  UNL1        0.0669
     15 CL        140.4400  144.3768  164.7934 Cl      1  UNL1       -0.0816
     16 N         139.4622  146.1770  161.3944 N.1     1  UNL1       -0.1908
     17 C         140.5969  145.3839  161.9718 C.1     1  UNL1        0.1013
     18 C         140.5622  137.0849  164.5080 C.3     1  UNL1        0.0769
     19 C         139.2091  137.6457  164.8313 C.3     1  UNL1        0.0437
     20 C         138.8362  139.0215  164.3640 C.ar    1  UNL1       -0.0210
     21 C         138.6120  140.1177  165.3629 C.ar    1  UNL1       -0.0040
     22 C         138.2391  141.4934  164.8956 C.ar    1  UNL1        0.0059
     23 C         138.0905  141.7728  163.4294 C.ar    1  UNL1        0.0751
     24 C         138.3147  140.6766  162.4305 C.ar    1  UNL1        0.0272
     25 C         138.6876  139.3009  162.8978 C.ar    1  UNL1       -0.0047
     26 C         138.0977  141.2466  161.0601 C.3     1  UNL1        0.2356
     27 O         137.7392  142.6952  161.2121 O.3     1  UNL1       -0.4404
     28 C         137.7348  143.0205  162.6764 C.2     1  UNL1        0.3413
     29 O         137.4285  144.3584  163.2815 O.2     1  UNL1       -0.2449
@<TRIPOS>BOND
     1    16    17    3
     2    17     9    1
     3     9    10   ar
     4    10    11   ar
     5    11    12   ar
     6    12     8    1
     7     8     7    1
     8     7     1    1
     9     1     2    1
    10     2     3    1
    11     3     4    1
    12     4    18    1
    13    18    19    1
    14    19    20    1
    15    20    21   ar
    16    21    22   ar
    17    22    23   ar
    18    23    24   ar
    19    24    25   ar
    20    24    26    1
    21    26    27    1
    22    27    28    1
    23    28    29    2
    24     4     5    1
    25     5     6    1
    26    12    13   ar
    27    13    14   ar
    28    14    15    1
    29    14     9   ar
    30     6     1    1
    31    25    20   ar
    32    28    23    1
@<TRIPOS>MOLECULE
*****
 29 32 0 0 0
SMALL
GASTEIGER

@<TRIPOS>ATOM
      1 N         142.3060  138.4508  164.3780 N.3     1  UNL1       -0.2700
      2 C         140.9859  137.9631  164.8970 C.3     1  UNL1        0.0897
      3 C         139.8381  137.7591  163.9531 C.3     1  UNL1        0.0897
      4 N         140.0104  138.0428  162.4903 N.3     1  UNL1       -0.2700
      5 C         141.3305  138.5305  161.9713 C.3     1  UNL1        0.0897
      6 C         142.4783  138.7345  162.9152 C.3     1  UNL1        0.0897
      7 C         143.4539  138.6548  165.3219 C.3     1  UNL1        0.0769
      8 C         143.2203  138.6297  166.8033 C.3     1  UNL1        0.0437
      9 C         141.3711  142.1851  168.8500 C.ar    1  UNL1        0.0790
     10 C         141.9845  142.3380  167.4898 C.ar    1  UNL1        0.0108
     11 C         142.6009  141.1529  166.8075 C.ar    1  UNL1       -0.0035
     12 C         142.6039  139.8148  167.4856 C.ar    1  UNL1       -0.0199
     13 C         141.9905  139.6619  168.8458 C.ar    1  UNL1        0.0079
     14 C         141.3740  140.8471  169.5281 C.ar    1  UNL1        0.0669
     15 CL        140.7606  140.6943  170.8883 Cl      1  UNL1       -0.0816
     16 N         140.1383  144.5555  170.2145 N.1     1  UNL1       -0.1908
     17 C         140.7546  143.3703  169.5323 C.1     1  UNL1        0.1013
     18 C         138.8625  137.8387  161.5465 C.3     1  UNL1        0.0769
     19 C         137.6703  138.7468  161.6082 C.3     1  UNL1        0.0437
     20 C         137.8589  140.2183  161.8303 C.ar    1  UNL1       -0.0210
     21 C         138.2156  141.1110  160.6789 C.ar    1  UNL1       -0.0040
     22 C         138.4042  142.5824  160.9011 C.ar    1  UNL1        0.0059
     23 C         138.2362  143.1611  162.2747 C.ar    1  UNL1        0.0751
     24 C         137.8796  142.2684  163.4262 C.ar    1  UNL1        0.0272
     25 C         137.6910  140.7970  163.2040 C.ar    1  UNL1       -0.0047
     26 C         137.7807  143.1182  164.6582 C.3     1  UNL1        0.2356
     27 O         138.0763  144.5362  164.2682 O.3     1  UNL1       -0.4404
     28 C         138.3578  144.5627  162.7951 C.2     1  UNL1        0.3413
     29 O         138.7007  145.7774  161.9847 O.2     1  UNL1       -0.2449
@<TRIPOS>BOND
     1    16    17    3
     2    17     9    1
     3     9    10   ar
     4    10    11   ar
     5    11    12   ar
     6    12     8    1
     7     8     7    1
     8     7     1    1
     9     1     2    1
    10     2     3    1
    11     3     4    1
    12     4    18    1
    13    18    19    1
    14    19    20    1
    15    20    21   ar
    16    21    22   ar
    17    22    23   ar
    18    23    24   ar
    19    24    25   ar
    20    24    26    1
    21    26    27    1
    22    27    28    1
    23    28    29    2
    24     4     5    1
    25     5     6    1
    26    12    13   ar
    27    13    14   ar
    28    14    15    1
    29    14     9   ar
    30     6     1    1
    31    25    20   ar
    32    28    23    1
@<TRIPOS>MOLECULE
*****
 29 32 0 0 0
SMALL
GASTEIGER

@<TRIPOS>ATOM
      1 N         143.7347  139.3160  162.0069 N.3     1  UNL1       -0.2700
      2 C         143.8631  140.6395  161.3127 C.3     1  UNL1        0.0897
      3 C         144.3731  141.8337  162.0635 C.3     1  UNL1        0.0897
      4 N         144.7547  141.7045  163.5083 N.3     1  UNL1       -0.2700
      5 C         144.6263  140.3810  164.2025 C.3     1  UNL1        0.0897
      6 C         144.1163  139.1867  163.4517 C.3     1  UNL1        0.0897
      7 C         143.2247  138.1216  161.2561 C.3     1  UNL1        0.0769
      8 C         141.7488  137.8745  161.1534 C.3     1  UNL1        0.0437
      9 C         139.1468  138.2394  164.8067 C.ar    1  UNL1        0.0790
     10 C         140.1917  137.1656  164.7343 C.ar    1  UNL1        0.0108
     11 C         141.0590  137.0440  163.5166 C.ar    1  UNL1       -0.0035
     12 C         140.8814  137.9961  162.3711 C.ar    1  UNL1       -0.0199
     13 C         139.8365  139.0699  162.4435 C.ar    1  UNL1        0.0079
     14 C         138.9692  139.1915  163.6613 C.ar    1  UNL1        0.0669
     15 CL        137.9243  140.2652  163.7337 Cl      1  UNL1       -0.0816
     16 N         137.4122  138.4825  167.2423 N.1     1  UNL1       -0.1908
     17 C         138.2795  138.3610  166.0245 C.1     1  UNL1        0.1013
     18 C         145.2647  142.8988  164.2591 C.3     1  UNL1        0.0769
     19 C         144.3080  143.7789  165.0074 C.3     1  UNL1        0.0437
     20 C         142.8796  143.8837  164.5615 C.ar    1  UNL1       -0.0210
     21 C         141.8422  142.9726  165.1476 C.ar    1  UNL1       -0.0040
     22 C         140.4139  143.0774  164.7017 C.ar    1  UNL1        0.0059
     23 C         140.0230  144.0933  163.6696 C.ar    1  UNL1        0.0751
     24 C         141.0604  145.0044  163.0835 C.ar    1  UNL1        0.0272
     25 C         142.4887  144.8996  163.5294 C.ar    1  UNL1       -0.0047
     26 C         140.3821  145.9012  162.0908 C.3     1  UNL1        0.2356
     27 O         138.9254  145.5445  162.0634 O.3     1  UNL1       -0.4404
     28 C         138.7034  144.4271  163.0391 C.2     1  UNL1        0.3413
     29 O         137.3922  143.7605  163.3329 O.2     1  UNL1       -0.2449
@<TRIPOS>BOND
     1    16    17    3
     2    17     9    1
     3     9    10   ar
     4    10    11   ar
     5    11    12   ar
     6    12     8    1
     7     8     7    1
     8     7     1    1
     9     1     2    1
    10     2     3    1
    11     3     4    1
    12     4    18    1
    13    18    19    1
    14    19    20    1
    15    20    21   ar
    16    21    22   ar
    17    22    23   ar
    18    23    24   ar
    19    24    25   ar
    20    24    26    1
    21    26    27    1
    22    27    28    1
    23    28    29    2
    24     4     5    1
    25     5     6    1
    26    12    13   ar
    27    13    14   ar
    28    14    15    1
    29    14     9   ar
    30     6     1    1
    31    25    20   ar
    32    28    23    1
@<TRIPOS>MOLECULE
*****
 29 32 0 0 0
SMALL
GASTEIGER

@<TRIPOS>ATOM
      1 N         139.8509  138.0416  164.3410 N.3     1  UNL1       -0.2700
      2 C         141.2242  138.1257  164.9385 C.3     1  UNL1        0.0897
      3 C         142.4308  138.1300  164.0474 C.3     1  UNL1        0.0897
      4 N         142.2642  138.0502  162.5588 N.3     1  UNL1       -0.2700
      5 C         140.8909  137.9661  161.9613 C.3     1  UNL1        0.0897
      6 C         139.6843  137.9618  162.8524 C.3     1  UNL1        0.0897
      7 C         138.6442  138.0373  165.2320 C.3     1  UNL1        0.0769
      8 C         138.1002  139.3299  165.7641 C.3     1  UNL1        0.0437
      9 C         138.6409  143.1330  163.4203 C.ar    1  UNL1        0.0790
     10 C         137.6566  142.1002  162.9573 C.ar    1  UNL1        0.0108
     11 C         137.4764  140.8325  163.7385 C.ar    1  UNL1       -0.0035
     12 C         138.2804  140.5976  164.9829 C.ar    1  UNL1       -0.0199
     13 C         139.2647  141.6304  165.4459 C.ar    1  UNL1        0.0079
     14 C         139.4449  142.8982  164.6646 C.ar    1  UNL1        0.0669
     15 CL        140.4292  143.9310  165.1277 Cl      1  UNL1       -0.0816
     16 N         139.0013  145.6685  161.8577 N.1     1  UNL1       -0.1908
     17 C         138.8211  144.4008  162.6390 C.1     1  UNL1        0.1013
     18 C         143.4709  138.0545  161.6678 C.3     1  UNL1        0.0769
     19 C         144.0468  139.3550  161.1914 C.3     1  UNL1        0.0437
     20 C         144.2124  140.4975  162.1492 C.ar    1  UNL1       -0.0210
     21 C         145.0899  140.3435  163.3559 C.ar    1  UNL1       -0.0040
     22 C         145.2555  141.4860  164.3136 C.ar    1  UNL1        0.0059
     23 C         144.5435  142.7826  164.0646 C.ar    1  UNL1        0.0751
     24 C         143.6661  142.9366  162.8579 C.ar    1  UNL1        0.0272
     25 C         143.5005  141.7941  161.9002 C.ar    1  UNL1       -0.0047
     26 C         143.0949  144.3235  162.8741 C.3     1  UNL1        0.2356
     27 O         143.6194  145.0266  164.0909 O.3     1  UNL1       -0.4404
     28 C         144.5147  144.0743  164.8267 C.2     1  UNL1        0.3413
     29 O         145.2518  144.3629  166.1008 O.2     1  UNL1       -0.2449
@<TRIPOS>BOND
     1    16    17    3
     2    17     9    1
     3     9    10   ar
     4    10    11   ar
     5    11    12   ar
     6    12     8    1
     7     8     7    1
     8     7     1    1
     9     1     2    1
    10     2     3    1
    11     3     4    1
    12     4    18    1
    13    18    19    1
    14    19    20    1
    15    20    21   ar
    16    21    22   ar
    17    22    23   ar
    18    23    24   ar
    19    24    25   ar
    20    24    26    1
    21    26    27    1
    22    27    28    1
    23    28    29    2
    24     4     5    1
    25     5     6    1
    26    12    13   ar
    27    13    14   ar
    28    14    15    1
    29    14     9   ar
    30     6     1    1
    31    25    20   ar
    32    28    23    1
@<TRIPOS>MOLECULE
*****
 29 32 0 0 0
SMALL
GASTEIGER

@<TRIPOS>ATOM
      1 N         137.8515  140.4473  161.7146 N.3     1  UNL1       -0.2700
      2 C         138.4819  141.3830  160.7262 C.3     1  UNL1        0.0897
      3 C         138.6952  142.8231  161.0875 C.3     1  UNL1        0.0897
      4 N         138.2782  143.3275  162.4372 N.3     1  UNL1       -0.2700
      5 C         137.6478  142.3918  163.4256 C.3     1  UNL1        0.0897
      6 C         137.4345  140.9517  163.0643 C.3     1  UNL1        0.0897
      7 C         137.6381  139.0071  161.3534 C.3     1  UNL1        0.0769
      8 C         138.8084  138.0720  161.2758 C.3     1  UNL1        0.0437
      9 C         141.9011  138.0622  164.5446 C.ar    1  UNL1        0.0790
     10 C         140.4594  137.8130  164.8754 C.ar    1  UNL1        0.0108
     11 C         139.4285  137.8163  163.7858 C.ar    1  UNL1       -0.0035
     12 C         139.8392  138.0688  162.3653 C.ar    1  UNL1       -0.0199
     13 C         141.2809  138.3180  162.0345 C.ar    1  UNL1        0.0079
     14 C         142.3119  138.3147  163.1242 C.ar    1  UNL1        0.0669
     15 CL        143.7535  138.5639  162.7934 Cl      1  UNL1       -0.0816
     16 N         143.9628  138.0557  166.7238 N.1     1  UNL1       -0.1908
     17 C         142.9320  138.0590  165.6342 C.1     1  UNL1        0.1013
     18 C         138.4916  144.7676  162.7985 C.3     1  UNL1        0.0769
     19 C         139.6606  145.1616  163.6517 C.3     1  UNL1        0.0437
     20 C         140.9444  144.3901  163.5676 C.ar    1  UNL1       -0.0210
     21 C         141.8614  144.5855  162.3968 C.ar    1  UNL1       -0.0040
     22 C         143.1450  143.8140  162.3126 C.ar    1  UNL1        0.0059
     23 C         143.5116  142.8473  163.3993 C.ar    1  UNL1        0.0751
     24 C         142.5946  142.6519  164.5702 C.ar    1  UNL1        0.0272
     25 C         141.3110  143.4233  164.6543 C.ar    1  UNL1       -0.0047
     26 C         143.2174  141.6371  165.4824 C.3     1  UNL1        0.2356
     27 O         144.5194  141.2052  164.8754 O.3     1  UNL1       -0.4404
     28 C         144.7012  141.9532  163.5880 C.2     1  UNL1        0.3413
     29 O         145.8678  141.8288  162.6533 O.2     1  UNL1       -0.2449
@<TRIPOS>BOND
     1    16    17    3
     2    17     9    1
     3     9    10   ar
     4    10    11   ar
     5    11    12   ar
     6    12     8    1
     7     8     7    1
     8     7     1    1
     9     1     2    1
    10     2     3    1
    11     3     4    1
    12     4    18    1
    13    18    19    1
    14    19    20    1
    15    20    21   ar
    16    21    22   ar
    17    22    23   ar
    18    23    24   ar
    19    24    25   ar
    20    24    26    1
    21    26    27    1
    22    27    28    1
    23    28    29    2
    24     4     5    1
    25     5     6    1
    26    12    13   ar
    27    13    14   ar
    28    14    15    1
    29    14     9   ar
    30     6     1    1
    31    25    20   ar
    32    28    23    1
@<TRIPOS>MOLECULE
*****
 29 32 0 0 0
SMALL
GASTEIGER

@<TRIPOS>ATOM
      1 N         139.2463  138.8404  164.5222 N.3     1  UNL1       -0.2700
      2 C         139.3959  139.6394  163.2616 C.3     1  UNL1        0.0897
      3 C         140.4334  139.2552  162.2488 C.3     1  UNL1        0.0897
      4 N         141.3215  138.0720  162.4966 N.3     1  UNL1       -0.2700
      5 C         141.1720  137.2730  163.7572 C.3     1  UNL1        0.0897
      6 C         140.1344  137.6572  164.7700 C.3     1  UNL1        0.0897
      7 C         138.2087  139.2245  165.5351 C.3     1  UNL1        0.0769
      8 C         138.4646  138.9948  166.9951 C.3     1  UNL1        0.0437
      9 C         141.1257  141.8113  169.2833 C.ar    1  UNL1        0.0790
     10 C         139.9627  141.1560  169.9675 C.ar    1  UNL1        0.0108
     11 C         139.0757  140.2171  169.2047 C.ar    1  UNL1       -0.0035
     12 C         139.3516  139.9336  167.7578 C.ar    1  UNL1       -0.0199
     13 C         140.5146  140.5890  167.0737 C.ar    1  UNL1        0.0079
     14 C         141.4016  141.5278  167.8365 C.ar    1  UNL1        0.0669
     15 CL        142.5646  142.1832  167.1524 Cl      1  UNL1       -0.0816
     16 N         142.8997  143.6889  170.8090 N.1     1  UNL1       -0.1908
     17 C         142.0127  142.7502  170.0462 C.1     1  UNL1        0.1013
     18 C         142.3591  137.6878  161.4837 C.3     1  UNL1        0.0769
     19 C         143.7348  138.2811  161.5572 C.3     1  UNL1        0.0437
     20 C         143.9627  139.5549  162.3159 C.ar    1  UNL1       -0.0210
     21 C         144.4068  139.5058  163.7478 C.ar    1  UNL1       -0.0040
     22 C         144.6346  140.7796  164.5064 C.ar    1  UNL1        0.0059
     23 C         144.4184  142.1024  163.8331 C.ar    1  UNL1        0.0751
     24 C         143.9743  142.1515  162.4012 C.ar    1  UNL1        0.0272
     25 C         143.7464  140.8778  161.6426 C.ar    1  UNL1       -0.0047
     26 C         143.8434  143.5925  162.0057 C.3     1  UNL1        0.2356
     27 O         144.2067  144.4340  163.1931 O.3     1  UNL1       -0.4404
     28 C         144.5620  143.5131  164.3226 C.2     1  UNL1        0.3413
     29 O         144.9865  143.9297  165.6996 O.2     1  UNL1       -0.2449
@<TRIPOS>BOND
     1    16    17    3
     2    17     9    1
     3     9    10   ar
     4    10    11   ar
     5    11    12   ar
     6    12     8    1
     7     8     7    1
     8     7     1    1
     9     1     2    1
    10     2     3    1
    11     3     4    1
    12     4    18    1
    13    18    19    1
    14    19    20    1
    15    20    21   ar
    16    21    22   ar
    17    22    23   ar
    18    23    24   ar
    19    24    25   ar
    20    24    26    1
    21    26    27    1
    22    27    28    1
    23    28    29    2
    24     4     5    1
    25     5     6    1
    26    12    13   ar
    27    13    14   ar
    28    14    15    1
    29    14     9   ar
    30     6     1    1
    31    25    20   ar
    32    28    23    1
@<TRIPOS>MOLECULE
*****
 29 32 0 0 0
SMALL
GASTEIGER

@<TRIPOS>ATOM
      1 N         143.0545  143.9130  162.6231 N.3     1  UNL1       -0.2700
      2 C         142.4929  144.9667  163.5310 C.3     1  UNL1        0.0897
      3 C         141.0233  145.2665  163.5130 C.3     1  UNL1        0.0897
      4 N         140.1154  144.5127  162.5870 N.3     1  UNL1       -0.2700
      5 C         140.6770  143.4590  161.6791 C.3     1  UNL1        0.0897
      6 C         142.1465  143.1592  161.6971 C.3     1  UNL1        0.0897
      7 C         144.5242  143.6131  162.6411 C.3     1  UNL1        0.0769
      8 C         145.0516  142.4975  163.4937 C.3     1  UNL1        0.0437
      9 C         142.5753  140.9019  166.8955 C.ar    1  UNL1        0.0790
     10 C         143.1351  142.2919  166.9629 C.ar    1  UNL1        0.0108
     11 C         143.9605  142.8237  165.8290 C.ar    1  UNL1       -0.0035
     12 C         144.2262  141.9656  164.6277 C.ar    1  UNL1       -0.0199
     13 C         143.6664  140.5756  164.5603 C.ar    1  UNL1        0.0079
     14 C         142.8409  140.0438  165.6943 C.ar    1  UNL1        0.0669
     15 CL        142.2811  138.6538  165.6270 Cl      1  UNL1       -0.0816
     16 N         140.9244  139.8382  169.1634 N.1     1  UNL1       -0.1908
     17 C         141.7499  140.3700  168.0295 C.1     1  UNL1        0.1013
     18 C         138.6457  144.8126  162.5690 C.3     1  UNL1        0.0769
     19 C         137.7005  143.9808  163.3842 C.3     1  UNL1        0.0437
     20 C         137.9912  142.5281  163.6191 C.ar    1  UNL1       -0.0210
     21 C         138.5559  142.0793  164.9343 C.ar    1  UNL1       -0.0040
     22 C         138.8466  140.6266  165.1692 C.ar    1  UNL1        0.0059
     23 C         138.5727  139.6227  164.0888 C.ar    1  UNL1        0.0751
     24 C         138.0081  140.0715  162.7736 C.ar    1  UNL1        0.0272
     25 C         137.7174  141.5241  162.5388 C.ar    1  UNL1       -0.0047
     26 C         137.8429  138.8613  161.9030 C.3     1  UNL1        0.2356
     27 O         138.3054  137.6645  162.6801 O.3     1  UNL1       -0.4404
     28 C         138.7565  138.1351  164.0310 C.2     1  UNL1        0.3413
     29 O         139.2965  137.2700  165.1310 O.2     1  UNL1       -0.2449
@<TRIPOS>BOND
     1    16    17    3
     2    17     9    1
     3     9    10   ar
     4    10    11   ar
     5    11    12   ar
     6    12     8    1
     7     8     7    1
     8     7     1    1
     9     1     2    1
    10     2     3    1
    11     3     4    1
    12     4    18    1
    13    18    19    1
    14    19    20    1
    15    20    21   ar
    16    21    22   ar
    17    22    23   ar
    18    23    24   ar
    19    24    25   ar
    20    24    26    1
    21    26    27    1
    22    27    28    1
    23    28    29    2
    24     4     5    1
    25     5     6    1
    26    12    13   ar
    27    13    14   ar
    28    14    15    1
    29    14     9   ar
    30     6     1    1
    31    25    20   ar
    32    28    23    1
@<TRIPOS>MOLECULE
*****
 29 32 0 0 0
SMALL
GASTEIGER

@<TRIPOS>ATOM
      1 N         138.0472  143.1877  163.1447 N.3     1  UNL1       -0.2700
      2 C         137.4941  141.9725  163.8282 C.3     1  UNL1        0.0897
      3 C         137.4268  140.6654  163.0955 C.3     1  UNL1        0.0897
      4 N         137.9126  140.5735  161.6793 N.3     1  UNL1       -0.2700
      5 C         138.4657  141.7888  160.9958 C.3     1  UNL1        0.0897
      6 C         138.5330  143.0959  161.7285 C.3     1  UNL1        0.0897
      7 C         138.1146  144.4949  163.8774 C.3     1  UNL1        0.0769
      8 C         139.1993  144.7347  164.8853 C.3     1  UNL1        0.0437
      9 C         143.2690  142.9097  164.2882 C.ar    1  UNL1        0.0790
     10 C         142.2163  142.1618  165.0514 C.ar    1  UNL1        0.0108
     11 C         140.8597  142.7701  165.2504 C.ar    1  UNL1       -0.0035
     12 C         140.5558  144.1264  164.6863 C.ar    1  UNL1       -0.0199
     13 C         141.6085  144.8743  163.9231 C.ar    1  UNL1        0.0079
     14 C         142.9651  144.2659  163.7240 C.ar    1  UNL1        0.0669
     15 CL        144.0178  145.0138  162.9608 Cl      1  UNL1       -0.0816
     16 N         145.9821  141.6929  163.8902 N.1     1  UNL1       -0.1908
     17 C         144.6256  142.3013  164.0891 C.1     1  UNL1        0.1013
     18 C         137.8452  139.2663  160.9466 C.3     1  UNL1        0.0769
     19 C         138.3965  138.0229  161.5789 C.3     1  UNL1        0.0437
     20 C         139.5449  138.1157  162.5395 C.ar    1  UNL1       -0.0210
     21 C         139.3335  137.8108  163.9929 C.ar    1  UNL1       -0.0040
     22 C         140.4819  137.9036  164.9533 C.ar    1  UNL1        0.0059
     23 C         141.8416  138.3013  164.4605 C.ar    1  UNL1        0.0751
     24 C         142.0530  138.6062  163.0071 C.ar    1  UNL1        0.0272
     25 C         140.9046  138.5134  162.0466 C.ar    1  UNL1       -0.0047
     26 C         143.4955  138.9698  162.8148 C.3     1  UNL1        0.2356
     27 O         144.1756  138.8896  164.1493 O.3     1  UNL1       -0.4404
     28 C         143.1535  138.4765  165.1665 C.2     1  UNL1        0.3413
     29 O         143.3999  138.2740  166.6321 O.2     1  UNL1       -0.2449
@<TRIPOS>BOND
     1    16    17    3
     2    17     9    1
     3     9    10   ar
     4    10    11   ar
     5    11    12   ar
     6    12     8    1
     7     8     7    1
     8     7     1    1
     9     1     2    1
    10     2     3    1
    11     3     4    1
    12     4    18    1
    13    18    19    1
    14    19    20    1
    15    20    21   ar
    16    21    22   ar
    17    22    23   ar
    18    23    24   ar
    19    24    25   ar
    20    24    26    1
    21    26    27    1
    22    27    28    1
    23    28    29    2
    24     4     5    1
    25     5     6    1
    26    12    13   ar
    27    13    14   ar
    28    14    15    1
    29    14     9   ar
    30     6     1    1
    31    25    20   ar
    32    28    23    1
@<TRIPOS>MOLECULE
*****
 29 32 0 0 0
SMALL
GASTEIGER

@<TRIPOS>ATOM
      1 N         138.6184  144.1673  162.9316 N.3     1  UNL1       -0.2700
      2 C         138.2196  143.0346  162.0328 C.3     1  UNL1        0.0897
      3 C         138.0335  141.6580  162.5986 C.3     1  UNL1        0.0897
      4 N         138.2462  141.4141  164.0633 N.3     1  UNL1       -0.2700
      5 C         138.6449  142.5469  164.9621 C.3     1  UNL1        0.0897
      6 C         138.8310  143.9235  164.3963 C.3     1  UNL1        0.0897
      7 C         138.8045  145.5440  162.3657 C.3     1  UNL1        0.0769
      8 C         140.1667  145.9994  161.9334 C.3     1  UNL1        0.0437
      9 C         143.7478  143.3671  162.6387 C.ar    1  UNL1        0.0790
     10 C         142.9494  143.2251  161.3767 C.ar    1  UNL1        0.0108
     11 C         141.7558  144.1025  161.1416 C.ar    1  UNL1       -0.0035
     12 C         141.3604  145.1220  162.1685 C.ar    1  UNL1       -0.0199
     13 C         142.1587  145.2640  163.4304 C.ar    1  UNL1        0.0079
     14 C         143.3524  144.3865  163.6655 C.ar    1  UNL1        0.0669
     15 CL        144.1507  144.5286  164.9275 Cl      1  UNL1       -0.0816
     16 N         146.1351  141.6123  163.1088 N.1     1  UNL1       -0.1908
     17 C         144.9415  142.4897  162.8737 C.1     1  UNL1        0.1013
     18 C         138.0600  140.0374  164.6292 C.3     1  UNL1        0.0769
     19 C         139.2554  139.1860  164.9392 C.3     1  UNL1        0.0437
     20 C         140.0312  139.4139  166.2026 C.ar    1  UNL1       -0.0210
     21 C         141.5232  139.2592  166.2048 C.ar    1  UNL1       -0.0040
     22 C         142.2989  139.4871  167.4683 C.ar    1  UNL1        0.0059
     23 C         141.5827  139.8696  168.7295 C.ar    1  UNL1        0.0751
     24 C         140.0907  140.0243  168.7273 C.ar    1  UNL1        0.0272
     25 C         139.3150  139.7965  167.4639 C.ar    1  UNL1       -0.0047
     26 C         139.6624  140.4073  170.1129 C.3     1  UNL1        0.2356
     27 O         140.8897  140.4893  170.9714 O.3     1  UNL1       -0.4404
     28 C         142.0765  140.1570  170.1165 C.2     1  UNL1        0.3413
     29 O         143.5061  140.1188  170.5690 O.2     1  UNL1       -0.2449
@<TRIPOS>BOND
     1    16    17    3
     2    17     9    1
     3     9    10   ar
     4    10    11   ar
     5    11    12   ar
     6    12     8    1
     7     8     7    1
     8     7     1    1
     9     1     2    1
    10     2     3    1
    11     3     4    1
    12     4    18    1
    13    18    19    1
    14    19    20    1
    15    20    21   ar
    16    21    22   ar
    17    22    23   ar
    18    23    24   ar
    19    24    25   ar
    20    24    26    1
    21    26    27    1
    22    27    28    1
    23    28    29    2
    24     4     5    1
    25     5     6    1
    26    12    13   ar
    27    13    14   ar
    28    14    15    1
    29    14     9   ar
    30     6     1    1
    31    25    20   ar
    32    28    23    1
