@<TRIPOS>MOLECULE
*****
 26 29 0 0 0
SMALL
GASTEIGER

@<TRIPOS>ATOM
      1 C         142.6692  140.7117  164.1306 C.ar    1  UNL1        0.1694
      2 N         142.9738  141.1218  162.7202 N.ar    1  UNL1       -0.1477
      3 N         142.2168  142.3840  162.4308 N.ar    1  UNL1       -0.2139
      4 C         142.1311  143.2442  161.2050 C.ar    1  UNL1        0.0624
      5 C         141.2729  144.4745  161.2106 C.ar    1  UNL1        0.0268
      6 C         140.5005  144.8445  162.4421 C.ar    1  UNL1        0.0988
      7 N         140.5862  143.9842  163.6679 N.ar    1  UNL1       -0.2241
      8 C         141.4444  142.7540  163.6623 C.ar    1  UNL1        0.1838
      9 C         141.7240  141.7204  164.7128 C.ar    1  UNL1        0.1787
     10 C         141.1872  145.3347  159.9848 C.3     1  UNL1        0.1019
     11 N         141.9596  144.9647  158.7534 N.3     1  UNL1       -0.2673
     12 C         141.8739  145.8250  157.5275 C.3     1  UNL1        0.0899
     13 C         142.8177  143.7344  158.7478 C.3     1  UNL1        0.0787
     14 C         142.9035  142.8742  159.9736 C.3     1  UNL1        0.0630
     15 C         142.3484  138.2954  165.0299 C.3     1  UNL1        0.1097
     16 N         143.2142  139.5047  164.8351 N.pl3   1  UNL1       -0.3142
     17 H         144.1401  139.5062  165.1696 H       1  UNL1        0.1483
     18 S         141.1577  141.6994  166.1017 S.O2    1  UNL1        0.0331
     19 O         139.8281  141.2737  165.5532 O.2     1  UNL1       -0.1641
     20 O         142.4873  142.1251  166.6502 O.2     1  UNL1       -0.1641
     21 C         140.5916  141.6784  167.4906 C.ar    1  UNL1        0.1105
     22 C         139.9026  140.4477  168.0012 C.ar    1  UNL1        0.0187
     23 C         139.3365  140.4267  169.3901 C.ar    1  UNL1        0.0013
     24 C         139.4593  141.6365  170.2684 C.ar    1  UNL1        0.0001
     25 C         140.1483  142.8672  169.7578 C.ar    1  UNL1        0.0013
     26 C         140.7144  142.8881  168.3689 C.ar    1  UNL1        0.0187
@<TRIPOS>BOND
     1    15    16    1
     2    16     1    1
     3     1     2   ar
     4     2     3   ar
     5     3     4   ar
     6     4     5   ar
     7     5     6   ar
     8     6     7   ar
     9     7     8   ar
    10     8     9   ar
    11     9    18    1
    12    18    19    2
    13    18    20    2
    14    18    21    1
    15    21    22   ar
    16    22    23   ar
    17    23    24   ar
    18    24    25   ar
    19    25    26   ar
    20     5    10    1
    21    10    11    1
    22    11    12    1
    23    11    13    1
    24    13    14    1
    25     9     1   ar
    26    26    21   ar
    27     8     3   ar
    28    14     4    1
    29    16    17    1
@<TRIPOS>MOLECULE
*****
 26 29 0 0 0
SMALL
GASTEIGER

@<TRIPOS>ATOM
      1 C         138.7056  141.0669  164.4875 C.ar    1  UNL1        0.1694
      2 N         138.3480  141.1748  163.0348 N.ar    1  UNL1       -0.1477
      3 N         139.2479  142.1999  162.4109 N.ar    1  UNL1       -0.2139
      4 C         139.3533  142.7227  161.0088 C.ar    1  UNL1        0.0624
      5 C         140.3724  143.7711  160.6740 C.ar    1  UNL1        0.0268
      6 C         141.2862  144.2967  161.7412 C.ar    1  UNL1        0.0988
      7 N         141.1808  143.7740  163.1431 N.ar    1  UNL1       -0.2241
      8 C         140.1616  142.7256  163.4780 C.ar    1  UNL1        0.1838
      9 C         139.8265  142.0253  164.7614 C.ar    1  UNL1        0.1787
     10 C         140.4779  144.2939  159.2720 C.3     1  UNL1        0.1019
     11 N         139.5641  143.7683  158.2049 N.3     1  UNL1       -0.2673
     12 C         139.6695  144.2911  156.8029 C.3     1  UNL1        0.0899
     13 C         138.5449  142.7199  158.5398 C.3     1  UNL1        0.0787
     14 C         138.4395  142.1971  159.9418 C.3     1  UNL1        0.0630
     15 C         138.4104  138.7025  165.5233 C.3     1  UNL1        0.1097
     16 N         138.0563  140.1597  165.4903 N.pl3   1  UNL1       -0.3142
     17 H         137.3977  140.5207  166.1268 H       1  UNL1        0.1483
     18 S         140.4949  142.2449  166.0863 S.O2    1  UNL1        0.0331
     19 O         141.1567  140.9034  165.9747 O.2     1  UNL1       -0.1641
     20 O         139.8331  143.5863  166.1978 O.2     1  UNL1       -0.1641
     21 C         141.1633  142.4645  167.4110 C.ar    1  UNL1        0.1105
     22 C         140.3985  143.0828  168.5436 C.ar    1  UNL1        0.0187
     23 C         141.0670  143.3024  169.8683 C.ar    1  UNL1        0.0013
     24 C         142.5002  142.9038  170.0605 C.ar    1  UNL1        0.0001
     25 C         143.2650  142.2855  168.9279 C.ar    1  UNL1        0.0013
     26 C         142.5965  142.0659  167.6031 C.ar    1  UNL1        0.0187
@<TRIPOS>BOND
     1    15    16    1
     2    16     1    1
     3     1     2   ar
     4     2     3   ar
     5     3     4   ar
     6     4     5   ar
     7     5     6   ar
     8     6     7   ar
     9     7     8   ar
    10     8     9   ar
    11     9    18    1
    12    18    19    2
    13    18    20    2
    14    18    21    1
    15    21    22   ar
    16    22    23   ar
    17    23    24   ar
    18    24    25   ar
    19    25    26   ar
    20     5    10    1
    21    10    11    1
    22    11    12    1
    23    11    13    1
    24    13    14    1
    25     9     1   ar
    26    26    21   ar
    27     8     3   ar
    28    14     4    1
    29    16    17    1
@<TRIPOS>MOLECULE
*****
 26 29 0 0 0
SMALL
GASTEIGER

@<TRIPOS>ATOM
      1 C         138.8610  140.3579  163.6562 C.ar    1  UNL1        0.1694
      2 N         138.9770  140.0927  162.1844 N.ar    1  UNL1       -0.1477
      3 N         140.2701  139.3717  161.9439 N.ar    1  UNL1       -0.2139
      4 C         140.9138  138.8561  160.6909 C.ar    1  UNL1        0.0624
      5 C         142.2408  138.1602  160.7611 C.ar    1  UNL1        0.0268
      6 C         142.9240  137.9799  162.0843 C.ar    1  UNL1        0.0988
      7 N         142.2803  138.4955  163.3372 N.ar    1  UNL1       -0.2241
      8 C         140.9534  139.1914  163.2670 C.ar    1  UNL1        0.1838
      9 C         140.0825  139.8009  164.3253 C.ar    1  UNL1        0.1787
     10 C         142.8844  137.6446  159.5082 C.3     1  UNL1        0.1019
     11 N         142.2012  137.8249  158.1851 N.3     1  UNL1       -0.2673
     12 C         142.8449  137.3093  156.9322 C.3     1  UNL1        0.0899
     13 C         140.8742  138.5208  158.1150 C.3     1  UNL1        0.0787
     14 C         140.2306  139.0364  159.3678 C.3     1  UNL1        0.0630
     15 C         137.7311  142.5518  164.4690 C.3     1  UNL1        0.1097
     16 N         137.7232  141.0575  164.3391 N.pl3   1  UNL1       -0.3142
     17 H         136.9712  140.5358  164.7019 H       1  UNL1        0.1483
     18 S         140.3807  139.8456  165.7947 S.O2    1  UNL1        0.0331
     19 O         139.2938  138.8428  166.0458 O.2     1  UNL1       -0.1641
     20 O         141.4676  140.8484  165.5436 O.2     1  UNL1       -0.1641
     21 C         140.6790  139.8903  167.2641 C.ar    1  UNL1        0.1105
     22 C         142.0775  139.6554  167.7530 C.ar    1  UNL1        0.0187
     23 C         142.3757  139.7001  169.2224 C.ar    1  UNL1        0.0013
     24 C         141.2754  139.9797  170.2028 C.ar    1  UNL1        0.0001
     25 C         139.8769  140.2146  169.7138 C.ar    1  UNL1        0.0013
     26 C         139.5787  140.1699  168.2445 C.ar    1  UNL1        0.0187
@<TRIPOS>BOND
     1    15    16    1
     2    16     1    1
     3     1     2   ar
     4     2     3   ar
     5     3     4   ar
     6     4     5   ar
     7     5     6   ar
     8     6     7   ar
     9     7     8   ar
    10     8     9   ar
    11     9    18    1
    12    18    19    2
    13    18    20    2
    14    18    21    1
    15    21    22   ar
    16    22    23   ar
    17    23    24   ar
    18    24    25   ar
    19    25    26   ar
    20     5    10    1
    21    10    11    1
    22    11    12    1
    23    11    13    1
    24    13    14    1
    25     9     1   ar
    26    26    21   ar
    27     8     3   ar
    28    14     4    1
    29    16    17    1
@<TRIPOS>MOLECULE
*****
 26 29 0 0 0
SMALL
GASTEIGER

@<TRIPOS>ATOM
      1 C         141.3418  138.6954  164.3116 C.ar    1  UNL1        0.1694
      2 N         141.1871  138.4210  162.8451 N.ar    1  UNL1       -0.1477
      3 N         140.2090  139.4128  162.2887 N.ar    1  UNL1       -0.2139
      4 C         139.6697  139.6225  160.9047 C.ar    1  UNL1        0.0624
      5 C         138.6807  140.7196  160.6434 C.ar    1  UNL1        0.0268
      6 C         138.2310  141.6070  161.7661 C.ar    1  UNL1        0.0988
      7 N         138.7702  141.3972  163.1500 N.ar    1  UNL1       -0.2241
      8 C         139.7592  140.3001  163.4113 C.ar    1  UNL1        0.1838
      9 C         140.4593  139.8567  164.6615 C.ar    1  UNL1        0.1787
     10 C         138.1415  140.9294  159.2595 C.3     1  UNL1        0.1019
     11 N         138.5913  140.0421  158.1369 N.3     1  UNL1       -0.2673
     12 C         138.0521  140.2518  156.7529 C.3     1  UNL1        0.0899
     13 C         139.5803  138.9450  158.3982 C.3     1  UNL1        0.0787
     14 C         140.1195  138.7352  159.7821 C.3     1  UNL1        0.0630
     15 C         143.5213  138.5405  165.7173 C.3     1  UNL1        0.1097
     16 N         142.2242  137.9409  165.2615 N.pl3   1  UNL1       -0.3142
     17 H         141.9519  137.0520  165.5857 H       1  UNL1        0.1483
     18 S         140.3042  140.4675  166.0228 S.O2    1  UNL1        0.0331
     19 O         141.1006  141.6587  165.5791 O.2     1  UNL1       -0.1641
     20 O         139.5078  139.2764  166.4664 O.2     1  UNL1       -0.1641
     21 C         140.1490  141.0782  167.3840 C.ar    1  UNL1        0.1105
     22 C         139.5388  140.2812  168.4986 C.ar    1  UNL1        0.0187
     23 C         139.3837  140.8919  169.8598 C.ar    1  UNL1        0.0013
     24 C         139.8388  142.2998  170.1064 C.ar    1  UNL1        0.0001
     25 C         140.4490  143.0969  168.9919 C.ar    1  UNL1        0.0013
     26 C         140.6042  142.4861  167.6307 C.ar    1  UNL1        0.0187
@<TRIPOS>BOND
     1    15    16    1
     2    16     1    1
     3     1     2   ar
     4     2     3   ar
     5     3     4   ar
     6     4     5   ar
     7     5     6   ar
     8     6     7   ar
     9     7     8   ar
    10     8     9   ar
    11     9    18    1
    12    18    19    2
    13    18    20    2
    14    18    21    1
    15    21    22   ar
    16    22    23   ar
    17    23    24   ar
    18    24    25   ar
    19    25    26   ar
    20     5    10    1
    21    10    11    1
    22    11    12    1
    23    11    13    1
    24    13    14    1
    25     9     1   ar
    26    26    21   ar
    27     8     3   ar
    28    14     4    1
    29    16    17    1
@<TRIPOS>MOLECULE
*****
 26 29 0 0 0
SMALL
GASTEIGER

@<TRIPOS>ATOM
      1 C         139.1722  140.0013  164.6956 C.ar    1  UNL1        0.1694
      2 N         139.1813  139.4785  163.2897 N.ar    1  UNL1       -0.1477
      3 N         140.5304  139.7621  162.6985 N.ar    1  UNL1       -0.2139
      4 C         141.1145  139.4748  161.3470 C.ar    1  UNL1        0.0624
      5 C         142.5232  139.8857  161.0361 C.ar    1  UNL1        0.0268
      6 C         143.3479  140.5838  162.0767 C.ar    1  UNL1        0.0988
      7 N         142.7638  140.8710  163.4280 N.ar    1  UNL1       -0.2241
      8 C         141.3550  140.4602  163.7390 C.ar    1  UNL1        0.1838
      9 C         140.5156  140.6080  164.9733 C.ar    1  UNL1        0.1787
     10 C         143.1073  139.5984  159.6847 C.3     1  UNL1        0.1019
     11 N         142.2827  138.9003  158.6443 N.3     1  UNL1       -0.2673
     12 C         142.8668  138.6130  157.2928 C.3     1  UNL1        0.0899
     13 C         140.8740  138.4895  158.9552 C.3     1  UNL1        0.0787
     14 C         140.2899  138.7767  160.3066 C.3     1  UNL1        0.0630
     15 C         137.9455  138.8126  166.6533 C.3     1  UNL1        0.1097
     16 N         138.0216  139.9299  165.6554 N.pl3   1  UNL1       -0.3142
     17 H         137.3164  140.6164  165.6303 H       1  UNL1        0.1483
     18 S         140.9444  141.2500  166.2595 S.O2    1  UNL1        0.0331
     19 O         141.8055  140.0607  166.5659 O.2     1  UNL1       -0.1641
     20 O         140.0832  142.4392  165.9529 O.2     1  UNL1       -0.1641
     21 C         141.3731  141.8919  167.5456 C.ar    1  UNL1        0.1105
     22 C         142.7620  141.6714  168.0674 C.ar    1  UNL1        0.0187
     23 C         143.1906  142.3134  169.3536 C.ar    1  UNL1        0.0013
     24 C         142.2303  143.1759  170.1178 C.ar    1  UNL1        0.0001
     25 C         140.8414  143.3964  169.5959 C.ar    1  UNL1        0.0013
     26 C         140.4128  142.7544  168.3098 C.ar    1  UNL1        0.0187
@<TRIPOS>BOND
     1    15    16    1
     2    16     1    1
     3     1     2   ar
     4     2     3   ar
     5     3     4   ar
     6     4     5   ar
     7     5     6   ar
     8     6     7   ar
     9     7     8   ar
    10     8     9   ar
    11     9    18    1
    12    18    19    2
    13    18    20    2
    14    18    21    1
    15    21    22   ar
    16    22    23   ar
    17    23    24   ar
    18    24    25   ar
    19    25    26   ar
    20     5    10    1
    21    10    11    1
    22    11    12    1
    23    11    13    1
    24    13    14    1
    25     9     1   ar
    26    26    21   ar
    27     8     3   ar
    28    14     4    1
    29    16    17    1
@<TRIPOS>MOLECULE
*****
 26 29 0 0 0
SMALL
GASTEIGER

@<TRIPOS>ATOM
      1 C         138.2241  142.8543  161.8241 C.ar    1  UNL1        0.1694
      2 N         138.0955  142.5133  160.3690 N.ar    1  UNL1       -0.1477
      3 N         138.7086  141.1614  160.1539 N.ar    1  UNL1       -0.2139
      4 C         138.8702  140.3168  158.9248 C.ar    1  UNL1        0.0624
      5 C         139.5395  138.9776  159.0178 C.ar    1  UNL1        0.0268
      6 C         140.0470  138.4830  160.3399 C.ar    1  UNL1        0.0988
      7 N         139.8853  139.3276  161.5689 N.ar    1  UNL1       -0.2241
      8 C         139.2161  140.6668  161.4759 C.ar    1  UNL1        0.1838
      9 C         138.9167  141.7131  162.5081 C.ar    1  UNL1        0.1787
     10 C         139.7012  138.1330  157.7888 C.3     1  UNL1        0.1019
     11 N         139.1936  138.6276  156.4668 N.3     1  UNL1       -0.2673
     12 C         139.3553  137.7830  155.2377 C.3     1  UNL1        0.0899
     13 C         138.5244  139.9668  156.3738 C.3     1  UNL1        0.0787
     14 C         138.3627  140.8114  157.6028 C.3     1  UNL1        0.0630
     15 C         138.7274  145.1794  162.8686 C.3     1  UNL1        0.1097
     16 N         137.7443  144.1152  162.4800 N.pl3   1  UNL1       -0.3142
     17 H         136.7842  144.2442  162.6554 H       1  UNL1        0.1483
     18 S         139.2511  141.6323  163.9682 S.O2    1  UNL1        0.0331
     19 O         140.6818  141.9599  163.6586 O.2     1  UNL1       -0.1641
     20 O         137.8205  141.3047  164.2778 O.2     1  UNL1       -0.1641
     21 C         139.5855  141.5515  165.4282 C.ar    1  UNL1        0.1105
     22 C         139.2874  140.2989  166.1978 C.ar    1  UNL1        0.0187
     23 C         139.6218  140.2182  167.6578 C.ar    1  UNL1        0.0013
     24 C         140.2543  141.3901  168.3482 C.ar    1  UNL1        0.0001
     25 C         140.5524  142.6426  167.5787 C.ar    1  UNL1        0.0013
     26 C         140.2180  142.7233  166.1187 C.ar    1  UNL1        0.0187
@<TRIPOS>BOND
     1    15    16    1
     2    16     1    1
     3     1     2   ar
     4     2     3   ar
     5     3     4   ar
     6     4     5   ar
     7     5     6   ar
     8     6     7   ar
     9     7     8   ar
    10     8     9   ar
    11     9    18    1
    12    18    19    2
    13    18    20    2
    14    18    21    1
    15    21    22   ar
    16    22    23   ar
    17    23    24   ar
    18    24    25   ar
    19    25    26   ar
    20     5    10    1
    21    10    11    1
    22    11    12    1
    23    11    13    1
    24    13    14    1
    25     9     1   ar
    26    26    21   ar
    27     8     3   ar
    28    14     4    1
    29    16    17    1
@<TRIPOS>MOLECULE
*****
 26 29 0 0 0
SMALL
GASTEIGER

@<TRIPOS>ATOM
      1 C         141.3734  137.8422  163.6216 C.ar    1  UNL1        0.1694
      2 N         141.4497  137.5864  162.1455 N.ar    1  UNL1       -0.1477
      3 N         142.3261  138.6406  161.5370 N.ar    1  UNL1       -0.2139
      4 C         142.7605  138.8916  160.1234 C.ar    1  UNL1        0.0624
      5 C         143.6603  140.0500  159.8097 C.ar    1  UNL1        0.0268
      6 C         144.1258  140.9575  160.9097 C.ar    1  UNL1        0.0988
      7 N         143.6914  140.7065  162.3233 N.ar    1  UNL1       -0.2241
      8 C         142.7915  139.5481  162.6370 C.ar    1  UNL1        0.1838
      9 C         142.2027  139.0546  163.9253 C.ar    1  UNL1        0.1787
     10 C         144.0947  140.3009  158.3961 C.3     1  UNL1        0.1019
     11 N         143.6293  139.3935  157.2962 N.3     1  UNL1       -0.2673
     12 C         144.0637  139.6444  155.8825 C.3     1  UNL1        0.0899
     13 C         142.7295  138.2351  157.6099 C.3     1  UNL1        0.0787
     14 C         142.2951  137.9841  159.0235 C.3     1  UNL1        0.0630
     15 C         139.2264  137.4567  165.0329 C.3     1  UNL1        0.1097
     16 N         140.6031  137.0285  164.6189 N.pl3   1  UNL1       -0.3142
     17 H         141.0010  136.2134  165.0016 H       1  UNL1        0.1483
     18 S         142.4074  139.6663  165.2796 S.O2    1  UNL1        0.0331
     19 O         141.5655  140.8405  164.8765 O.2     1  UNL1       -0.1641
     20 O         143.2492  138.4921  165.6827 O.2     1  UNL1       -0.1641
     21 C         142.6120  140.2778  166.6339 C.ar    1  UNL1        0.1105
     22 C         142.9106  141.7426  166.7581 C.ar    1  UNL1        0.0187
     23 C         143.1152  142.3540  168.1125 C.ar    1  UNL1        0.0013
     24 C         143.0213  141.5007  169.3426 C.ar    1  UNL1        0.0001
     25 C         142.7228  140.0360  169.2183 C.ar    1  UNL1        0.0013
     26 C         142.5181  139.4246  167.8640 C.ar    1  UNL1        0.0187
@<TRIPOS>BOND
     1    15    16    1
     2    16     1    1
     3     1     2   ar
     4     2     3   ar
     5     3     4   ar
     6     4     5   ar
     7     5     6   ar
     8     6     7   ar
     9     7     8   ar
    10     8     9   ar
    11     9    18    1
    12    18    19    2
    13    18    20    2
    14    18    21    1
    15    21    22   ar
    16    22    23   ar
    17    23    24   ar
    18    24    25   ar
    19    25    26   ar
    20     5    10    1
    21    10    11    1
    22    11    12    1
    23    11    13    1
    24    13    14    1
    25     9     1   ar
    26    26    21   ar
    27     8     3   ar
    28    14     4    1
    29    16    17    1
@<TRIPOS>MOLECULE
*****
 26 29 0 0 0
SMALL
GASTEIGER

@<TRIPOS>ATOM
      1 C         144.0096  139.5997  163.0021 C.ar    1  UNL1        0.1694
      2 N         143.9820  139.4036  161.5152 N.ar    1  UNL1       -0.1477
      3 N         142.5677  139.1070  161.1131 N.ar    1  UNL1       -0.2139
      4 C         141.9412  138.8269  159.7792 C.ar    1  UNL1        0.0624
      5 C         140.4683  138.5596  159.6836 C.ar    1  UNL1        0.0268
      6 C         139.6219  138.5724  160.9220 C.ar    1  UNL1        0.0988
      7 N         140.2483  138.8526  162.2558 N.ar    1  UNL1       -0.2241
      8 C         141.7212  139.1198  162.3513 C.ar    1  UNL1        0.1838
      9 C         142.6124  139.4244  163.5188 C.ar    1  UNL1        0.1787
     10 C         139.8418  138.2795  158.3499 C.3     1  UNL1        0.1019
     11 N         140.6883  138.2666  157.1116 N.3     1  UNL1       -0.2673
     12 C         140.0618  137.9865  155.7777 C.3     1  UNL1        0.0899
     13 C         142.1612  138.5339  157.2071 C.3     1  UNL1        0.0787
     14 C         142.7876  138.8140  158.5409 C.3     1  UNL1        0.0630
     15 C         145.7337  141.3238  163.8993 C.3     1  UNL1        0.1097
     16 N         145.2217  139.9158  163.8273 N.pl3   1  UNL1       -0.3142
     17 H         145.6812  139.1991  164.3217 H       1  UNL1        0.1483
     18 S         142.1819  139.5343  164.9516 S.O2    1  UNL1        0.0331
     19 O         142.3130  141.0266  164.8765 O.2     1  UNL1       -0.1641
     20 O         142.0509  138.0419  165.0266 O.2     1  UNL1       -0.1641
     21 C         141.7514  139.6441  166.3842 C.ar    1  UNL1        0.1105
     22 C         142.7426  139.4092  167.4853 C.ar    1  UNL1        0.0187
     23 C         142.3120  139.5190  168.9180 C.ar    1  UNL1        0.0013
     24 C         140.8903  139.8637  169.2495 C.ar    1  UNL1        0.0001
     25 C         139.8991  140.0985  168.1484 C.ar    1  UNL1        0.0013
     26 C         140.3297  139.9887  166.7158 C.ar    1  UNL1        0.0187
@<TRIPOS>BOND
     1    15    16    1
     2    16     1    1
     3     1     2   ar
     4     2     3   ar
     5     3     4   ar
     6     4     5   ar
     7     5     6   ar
     8     6     7   ar
     9     7     8   ar
    10     8     9   ar
    11     9    18    1
    12    18    19    2
    13    18    20    2
    14    18    21    1
    15    21    22   ar
    16    22    23   ar
    17    23    24   ar
    18    24    25   ar
    19    25    26   ar
    20     5    10    1
    21    10    11    1
    22    11    12    1
    23    11    13    1
    24    13    14    1
    25     9     1   ar
    26    26    21   ar
    27     8     3   ar
    28    14     4    1
    29    16    17    1
@<TRIPOS>MOLECULE
*****
 26 29 0 0 0
SMALL
GASTEIGER

@<TRIPOS>ATOM
      1 C         140.2898  142.8648  163.3678 C.ar    1  UNL1        0.1694
      2 N         140.3153  142.2792  161.9871 N.ar    1  UNL1       -0.1477
      3 N         141.1656  141.0441  162.0231 N.ar    1  UNL1       -0.2139
      4 C         141.5491  140.0582  160.9595 C.ar    1  UNL1        0.0624
      5 C         142.4327  138.8946  161.2989 C.ar    1  UNL1        0.0268
      6 C         142.9327  138.7168  162.7020 C.ar    1  UNL1        0.0988
      7 N         142.5492  139.7026  163.7654 N.ar    1  UNL1       -0.2241
      8 C         141.6656  140.8662  163.4260 C.ar    1  UNL1        0.1838
      9 C         141.1243  141.9915  164.2571 C.ar    1  UNL1        0.1787
     10 C         142.8162  137.9088  160.2354 C.3     1  UNL1        0.1019
     11 N         142.3162  138.0867  158.8325 N.3     1  UNL1       -0.2673
     12 C         142.6997  137.1008  157.7689 C.3     1  UNL1        0.0899
     13 C         141.4326  139.2503  158.4931 C.3     1  UNL1        0.0787
     14 C         141.0490  140.2361  159.5565 C.3     1  UNL1        0.0630
     15 C         138.0828  144.0532  164.0511 C.3     1  UNL1        0.1097
     16 N         139.5582  144.1058  163.7859 N.pl3   1  UNL1       -0.3142
     17 H         140.0464  144.9548  163.8861 H       1  UNL1        0.1483
     18 S         141.3739  142.2058  165.7207 S.O2    1  UNL1        0.0331
     19 O         142.7683  142.6666  165.4155 O.2     1  UNL1       -0.1641
     20 O         139.9794  141.7450  166.0258 O.2     1  UNL1       -0.1641
     21 C         141.6233  142.4201  167.1842 C.ar    1  UNL1        0.1105
     22 C         142.9831  142.1564  167.7598 C.ar    1  UNL1        0.0187
     23 C         143.2325  142.3708  169.2233 C.ar    1  UNL1        0.0013
     24 C         142.1220  142.8488  170.1112 C.ar    1  UNL1        0.0001
     25 C         140.7622  143.1125  169.5356 C.ar    1  UNL1        0.0013
     26 C         140.5128  142.8982  168.0721 C.ar    1  UNL1        0.0187
@<TRIPOS>BOND
     1    15    16    1
     2    16     1    1
     3     1     2   ar
     4     2     3   ar
     5     3     4   ar
     6     4     5   ar
     7     5     6   ar
     8     6     7   ar
     9     7     8   ar
    10     8     9   ar
    11     9    18    1
    12    18    19    2
    13    18    20    2
    14    18    21    1
    15    21    22   ar
    16    22    23   ar
    17    23    24   ar
    18    24    25   ar
    19    25    26   ar
    20     5    10    1
    21    10    11    1
    22    11    12    1
    23    11    13    1
    24    13    14    1
    25     9     1   ar
    26    26    21   ar
    27     8     3   ar
    28    14     4    1
    29    16    17    1
