@<TRIPOS>MOLECULE
*****
 27 30 0 0 0
SMALL
GASTEIGER

@<TRIPOS>ATOM
      1 C         142.8912  138.9381  165.2136 C.3     1  UNL1        0.0634
      2 C         141.9531  138.0847  164.4126 C.3     1  UNL1        0.0292
      3 C         142.1282  137.9681  162.9274 C.3     1  UNL1        0.0954
      4 N         143.2415  138.7047  162.2433 N.am    1  UNL1       -0.2642
      5 C         143.4166  138.5880  160.7581 C.2     1  UNL1        0.3039
      6 O         144.5298  139.3247  160.0740 O.2     1  UNL1       -0.2526
      7 N         142.4784  137.7347  159.9571 N.am    1  UNL1       -0.2901
      8 C         144.1796  139.5581  163.0444 C.3     1  UNL1        0.0954
      9 C         144.0045  139.6748  164.5295 C.3     1  UNL1        0.0292
     10 H         141.7478  137.2512  160.4061 H       1  UNL1        0.1509
     11 C         140.5857  140.6686  166.7433 C.3     1  UNL1        0.0390
     12 C         141.6564  139.8502  167.4019 C.ar    1  UNL1        0.0669
     13 C         141.8554  139.6836  168.8793 C.ar    1  UNL1        0.2563
     14 O         141.0186  140.3060  169.9574 O.3     1  UNL1       -0.4902
     15 N         143.0381  138.7851  169.0893 N.ar    1  UNL1       -0.0397
     16 O         143.5701  138.3966  167.7417 O.2     1  UNL1       -0.3552
     17 C         142.7161  139.0548  166.6988 C.ar    1  UNL1        0.1532
     18 H         140.2953  140.8566  169.7299 H       1  UNL1        0.2938
     19 C         142.6535  137.6180  158.4719 C.3     1  UNL1        0.0774
     20 C         142.8794  138.2616  157.1359 C.3     1  UNL1        0.0259
     21 C         142.7310  136.7723  157.2354 C.3     1  UNL1        0.0420
     22 C         142.6900  135.4242  156.5790 C.ar    1  UNL1       -0.0208
     23 C         141.5893  135.0922  155.6156 C.ar    1  UNL1       -0.0042
     24 C         141.5483  133.7441  154.9592 C.ar    1  UNL1       -0.0003
     25 C         142.6080  132.7279  155.2663 C.ar    1  UNL1       -0.0000
     26 C         143.7087  133.0598  156.2297 C.ar    1  UNL1       -0.0003
     27 C         143.7497  134.4080  156.8861 C.ar    1  UNL1       -0.0042
@<TRIPOS>BOND
     1    11    12    1
     2    12    13   ar
     3    13    14    1
     4    13    15   ar
     5    15    16   ar
     6    16    17   ar
     7    17     1    1
     8     1     2    1
     9     2     3    1
    10     3     4    1
    11     4     5   am
    12     5     6    2
    13     5     7   am
    14     7    19    1
    15    19    20    1
    16    20    21    1
    17    21    22    1
    18    22    23   ar
    19    23    24   ar
    20    24    25   ar
    21    25    26   ar
    22    26    27   ar
    23     4     8    1
    24     8     9    1
    25    17    12   ar
    26     9     1    1
    27    21    19    1
    28    27    22   ar
    29    14    18    1
    30     7    10    1
@<TRIPOS>MOLECULE
*****
 27 30 0 0 0
SMALL
GASTEIGER

@<TRIPOS>ATOM
      1 C         139.2529  139.6724  166.8906 C.3     1  UNL1        0.0634
      2 C         139.6009  140.8012  165.9661 C.3     1  UNL1        0.0292
      3 C         139.4444  140.6321  164.4839 C.3     1  UNL1        0.0954
      4 N         138.9399  139.3342  163.9263 N.am    1  UNL1       -0.2642
      5 C         138.7834  139.1651  162.4440 C.2     1  UNL1        0.3039
      6 O         138.2789  137.8673  161.8863 O.2     1  UNL1       -0.2526
      7 N         139.1314  140.2939  161.5195 N.am    1  UNL1       -0.2901
      8 C         138.5919  138.2055  164.8508 C.3     1  UNL1        0.0954
      9 C         138.7484  138.3746  166.3329 C.3     1  UNL1        0.0292
     10 H         139.4625  141.1457  161.8855 H       1  UNL1        0.1509
     11 C         142.0323  140.3491  168.4613 C.3     1  UNL1        0.0390
     12 C         140.6869  140.1525  169.0948 C.ar    1  UNL1        0.0669
     13 C         140.3829  140.2325  170.5614 C.ar    1  UNL1        0.2563
     14 O         141.3709  140.5230  171.6521 O.3     1  UNL1       -0.4902
     15 N         138.9174  139.9709  170.7460 N.ar    1  UNL1       -0.0397
     16 O         138.3158  139.7292  169.3934 O.2     1  UNL1       -0.3552
     17 C         139.4094  139.8415  168.3728 C.ar    1  UNL1        0.1532
     18 H         142.2710  140.6745  171.4407 H       1  UNL1        0.2938
     19 C         138.9749  140.1248  160.0372 C.3     1  UNL1        0.0774
     20 C         138.2823  140.4805  158.7552 C.3     1  UNL1        0.0259
     21 C         139.3965  139.4763  158.7521 C.3     1  UNL1        0.0420
     22 C         140.2832  138.5222  158.0083 C.ar    1  UNL1       -0.0208
     23 C         141.7156  138.3531  158.4203 C.ar    1  UNL1       -0.0042
     24 C         142.6023  137.3989  157.6765 C.ar    1  UNL1       -0.0003
     25 C         142.0566  136.6138  156.5206 C.ar    1  UNL1       -0.0000
     26 C         140.6243  136.7829  156.1086 C.ar    1  UNL1       -0.0003
     27 C         139.7376  137.7371  156.8525 C.ar    1  UNL1       -0.0042
@<TRIPOS>BOND
     1    11    12    1
     2    12    13   ar
     3    13    14    1
     4    13    15   ar
     5    15    16   ar
     6    16    17   ar
     7    17     1    1
     8     1     2    1
     9     2     3    1
    10     3     4    1
    11     4     5   am
    12     5     6    2
    13     5     7   am
    14     7    19    1
    15    19    20    1
    16    20    21    1
    17    21    22    1
    18    22    23   ar
    19    23    24   ar
    20    24    25   ar
    21    25    26   ar
    22    26    27   ar
    23     4     8    1
    24     8     9    1
    25    17    12   ar
    26     9     1    1
    27    21    19    1
    28    27    22   ar
    29    14    18    1
    30     7    10    1
@<TRIPOS>MOLECULE
*****
 27 30 0 0 0
SMALL
GASTEIGER

@<TRIPOS>ATOM
      1 C         139.8673  140.5652  167.4398 C.3     1  UNL1        0.0634
      2 C         140.3217  141.4818  166.3428 C.3     1  UNL1        0.0292
      3 C         139.9954  141.1612  164.9143 C.3     1  UNL1        0.0954
      4 N         139.2147  139.9240  164.5828 N.am    1  UNL1       -0.2642
      5 C         138.8884  139.6035  163.1541 C.2     1  UNL1        0.3039
      6 O         138.1077  138.3663  162.8226 O.2     1  UNL1       -0.2526
      7 N         139.3428  140.5201  162.0572 N.am    1  UNL1       -0.2901
      8 C         138.7603  139.0075  165.6797 C.3     1  UNL1        0.0954
      9 C         139.0866  139.3280  167.1082 C.3     1  UNL1        0.0292
     10 H         139.8552  141.3321  162.2748 H       1  UNL1        0.1509
     11 C         142.4320  139.4464  169.1192 C.3     1  UNL1        0.0390
     12 C         141.3725  140.3715  169.6403 C.ar    1  UNL1        0.0669
     13 C         141.3058  140.9447  171.0248 C.ar    1  UNL1        0.2563
     14 O         142.2869  140.6935  172.1313 O.3     1  UNL1       -0.4902
     15 N         140.0857  141.8133  171.1086 N.ar    1  UNL1       -0.0397
     16 O         139.3984  141.7769  169.7759 O.2     1  UNL1       -0.3552
     17 C         140.1937  140.8857  168.8684 C.ar    1  UNL1        0.1532
     18 H         143.0235  140.1330  171.9860 H       1  UNL1        0.2938
     19 C         139.0165  140.1995  160.6286 C.3     1  UNL1        0.0774
     20 C         138.1045  140.3264  159.4444 C.3     1  UNL1        0.0259
     21 C         139.3632  139.5175  159.3384 C.3     1  UNL1        0.0420
     22 C         140.2902  138.6567  158.5323 C.ar    1  UNL1       -0.0208
     23 C         139.7859  137.9549  157.3063 C.ar    1  UNL1       -0.0042
     24 C         140.7128  137.0941  156.5002 C.ar    1  UNL1       -0.0003
     25 C         142.1441  136.9351  156.9202 C.ar    1  UNL1       -0.0000
     26 C         142.6483  137.6369  158.1462 C.ar    1  UNL1       -0.0003
     27 C         141.7213  138.4977  158.9523 C.ar    1  UNL1       -0.0042
@<TRIPOS>BOND
     1    11    12    1
     2    12    13   ar
     3    13    14    1
     4    13    15   ar
     5    15    16   ar
     6    16    17   ar
     7    17     1    1
     8     1     2    1
     9     2     3    1
    10     3     4    1
    11     4     5   am
    12     5     6    2
    13     5     7   am
    14     7    19    1
    15    19    20    1
    16    20    21    1
    17    21    22    1
    18    22    23   ar
    19    23    24   ar
    20    24    25   ar
    21    25    26   ar
    22    26    27   ar
    23     4     8    1
    24     8     9    1
    25    17    12   ar
    26     9     1    1
    27    21    19    1
    28    27    22   ar
    29    14    18    1
    30     7    10    1
@<TRIPOS>MOLECULE
*****
 27 30 0 0 0
SMALL
GASTEIGER

@<TRIPOS>ATOM
      1 C         139.5277  140.2090  167.1936 C.3     1  UNL1        0.0634
      2 C         139.9423  141.3915  166.3690 C.3     1  UNL1        0.0292
      3 C         139.6476  141.4208  164.8986 C.3     1  UNL1        0.0954
      4 N         138.9384  140.2676  164.2527 N.am    1  UNL1       -0.2642
      5 C         138.6437  140.2969  162.7822 C.2     1  UNL1        0.3039
      6 O         137.9344  139.1438  162.1363 O.2     1  UNL1       -0.2526
      7 N         139.0583  141.4794  161.9576 N.am    1  UNL1       -0.2901
      8 C         138.5238  139.0852  165.0772 C.3     1  UNL1        0.0954
      9 C         138.8184  139.0559  166.5477 C.3     1  UNL1        0.0292
     10 H         139.5238  142.2362  162.3816 H       1  UNL1        0.1509
     11 C         142.4001  140.8828  168.5883 C.3     1  UNL1        0.0390
     12 C         141.1426  140.4894  169.3051 C.ar    1  UNL1        0.0669
     13 C         140.9847  140.3366  170.7889 C.ar    1  UNL1        0.2563
     14 O         142.0565  140.5505  171.8164 O.3     1  UNL1       -0.4902
     15 N         139.5667  139.9325  171.0650 N.ar    1  UNL1       -0.0397
     16 O         138.8484  139.8355  169.7518 O.2     1  UNL1       -0.3552
     17 C         139.8224  140.1797  168.6641 C.ar    1  UNL1        0.1532
     18 H         142.9181  140.8034  171.5489 H       1  UNL1        0.2938
     19 C         138.7636  141.5087  160.4871 C.3     1  UNL1        0.0774
     20 C         138.1711  140.8665  159.2679 C.3     1  UNL1        0.0259
     21 C         138.8458  142.2017  159.1593 C.3     1  UNL1        0.0420
     22 C         139.2829  143.3727  158.3300 C.ar    1  UNL1       -0.0208
     23 C         140.1164  144.4577  158.9448 C.ar    1  UNL1       -0.0042
     24 C         140.5534  145.6287  158.1156 C.ar    1  UNL1       -0.0003
     25 C         140.1569  145.7148  156.6714 C.ar    1  UNL1       -0.0000
     26 C         139.3234  144.6297  156.0566 C.ar    1  UNL1       -0.0003
     27 C         138.8864  143.4587  156.8860 C.ar    1  UNL1       -0.0042
@<TRIPOS>BOND
     1    11    12    1
     2    12    13   ar
     3    13    14    1
     4    13    15   ar
     5    15    16   ar
     6    16    17   ar
     7    17     1    1
     8     1     2    1
     9     2     3    1
    10     3     4    1
    11     4     5   am
    12     5     6    2
    13     5     7   am
    14     7    19    1
    15    19    20    1
    16    20    21    1
    17    21    22    1
    18    22    23   ar
    19    23    24   ar
    20    24    25   ar
    21    25    26   ar
    22    26    27   ar
    23     4     8    1
    24     8     9    1
    25    17    12   ar
    26     9     1    1
    27    21    19    1
    28    27    22   ar
    29    14    18    1
    30     7    10    1
@<TRIPOS>MOLECULE
*****
 27 30 0 0 0
SMALL
GASTEIGER

@<TRIPOS>ATOM
      1 C         139.2302  140.3166  160.1314 C.3     1  UNL1        0.0634
      2 C         140.5087  139.6490  160.5432 C.3     1  UNL1        0.0292
      3 C         141.2058  138.7158  159.5981 C.3     1  UNL1        0.0954
      4 N         140.6243  138.4502  158.2412 N.am    1  UNL1       -0.2642
      5 C         141.3214  137.5170  157.2960 C.2     1  UNL1        0.3039
      6 O         140.7399  137.2514  155.9391 O.2     1  UNL1       -0.2526
      7 N         142.5999  136.8494  157.7079 N.am    1  UNL1       -0.2901
      8 C         139.3457  139.1178  157.8293 C.3     1  UNL1        0.0954
      9 C         138.6487  140.0510  158.7744 C.3     1  UNL1        0.0292
     10 H         142.9815  137.0237  158.5985 H       1  UNL1        0.1509
     11 C         139.6352  143.5513  160.2806 C.3     1  UNL1        0.0390
     12 C         138.7193  142.7367  161.1451 C.ar    1  UNL1        0.0669
     13 C         137.8287  143.2658  162.2299 C.ar    1  UNL1        0.2563
     14 O         137.6977  144.7025  162.6407 O.3     1  UNL1       -0.4902
     15 N         137.0921  142.1059  162.8319 N.ar    1  UNL1       -0.0397
     16 O         137.5275  140.8601  162.1190 O.2     1  UNL1       -0.3552
     17 C         138.5331  141.2498  161.0765 C.ar    1  UNL1        0.1532
     18 H         138.2008  145.3621  162.2051 H       1  UNL1        0.2938
     19 C         143.2970  135.9161  156.7628 C.3     1  UNL1        0.0774
     20 C         144.0608  135.6849  155.4927 C.3     1  UNL1        0.0259
     21 C         143.7405  134.5310  156.3958 C.3     1  UNL1        0.0420
     22 C         143.8116  133.0650  156.7055 C.ar    1  UNL1       -0.0208
     23 C         142.8219  132.1199  156.0912 C.ar    1  UNL1       -0.0042
     24 C         142.8931  130.6539  156.4008 C.ar    1  UNL1       -0.0003
     25 C         143.9538  130.1331  157.3247 C.ar    1  UNL1       -0.0000
     26 C         144.9435  131.0782  157.9390 C.ar    1  UNL1       -0.0003
     27 C         144.8723  132.5442  157.6293 C.ar    1  UNL1       -0.0042
@<TRIPOS>BOND
     1    11    12    1
     2    12    13   ar
     3    13    14    1
     4    13    15   ar
     5    15    16   ar
     6    16    17   ar
     7    17     1    1
     8     1     2    1
     9     2     3    1
    10     3     4    1
    11     4     5   am
    12     5     6    2
    13     5     7   am
    14     7    19    1
    15    19    20    1
    16    20    21    1
    17    21    22    1
    18    22    23   ar
    19    23    24   ar
    20    24    25   ar
    21    25    26   ar
    22    26    27   ar
    23     4     8    1
    24     8     9    1
    25    17    12   ar
    26     9     1    1
    27    21    19    1
    28    27    22   ar
    29    14    18    1
    30     7    10    1
@<TRIPOS>MOLECULE
*****
 27 30 0 0 0
SMALL
GASTEIGER

@<TRIPOS>ATOM
      1 C         139.3774  142.1600  159.7874 C.3     1  UNL1        0.0634
      2 C         140.5390  141.2264  159.9575 C.3     1  UNL1        0.0292
      3 C         140.6965  140.0503  159.0399 C.3     1  UNL1        0.0954
      4 N         139.6924  139.8078  157.9523 N.am    1  UNL1       -0.2642
      5 C         139.8499  138.6316  157.0347 C.2     1  UNL1        0.3039
      6 O         138.8458  138.3891  155.9471 O.2     1  UNL1       -0.2526
      7 N         141.0115  137.6980  157.2048 N.am    1  UNL1       -0.2901
      8 C         138.5308  140.7414  157.7822 C.3     1  UNL1        0.0954
      9 C         138.3733  141.9175  158.6998 C.3     1  UNL1        0.0292
     10 H         141.6706  137.8572  157.9187 H       1  UNL1        0.1509
     11 C         141.3088  144.7887  159.8855 C.3     1  UNL1        0.0390
     12 C         140.1076  144.5444  160.7501 C.ar    1  UNL1        0.0669
     13 C         139.5833  145.4655  161.8115 C.ar    1  UNL1        0.2563
     14 O         140.1681  146.7926  162.1947 O.3     1  UNL1       -0.4902
     15 N         138.3714  144.8265  162.4225 N.ar    1  UNL1       -0.0397
     16 O         138.1469  143.5105  161.7386 O.2     1  UNL1       -0.3552
     17 C         139.2198  143.3362  160.7050 C.ar    1  UNL1        0.1532
     18 H         140.9312  147.1128  161.7553 H       1  UNL1        0.2938
     19 C         141.1691  136.5218  156.2872 C.3     1  UNL1        0.0774
     20 C         140.7692  135.7792  155.0469 C.3     1  UNL1        0.0259
     21 C         141.8419  135.2274  155.9383 C.3     1  UNL1        0.0420
     22 C         142.8496  134.1615  156.2516 C.ar    1  UNL1       -0.0208
     23 C         143.1535  133.0962  155.2403 C.ar    1  UNL1       -0.0042
     24 C         144.1613  132.0302  155.5536 C.ar    1  UNL1       -0.0003
     25 C         144.8652  132.0296  156.8782 C.ar    1  UNL1       -0.0000
     26 C         144.5613  133.0949  157.8895 C.ar    1  UNL1       -0.0003
     27 C         143.5535  134.1608  157.5762 C.ar    1  UNL1       -0.0042
@<TRIPOS>BOND
     1    11    12    1
     2    12    13   ar
     3    13    14    1
     4    13    15   ar
     5    15    16   ar
     6    16    17   ar
     7    17     1    1
     8     1     2    1
     9     2     3    1
    10     3     4    1
    11     4     5   am
    12     5     6    2
    13     5     7   am
    14     7    19    1
    15    19    20    1
    16    20    21    1
    17    21    22    1
    18    22    23   ar
    19    23    24   ar
    20    24    25   ar
    21    25    26   ar
    22    26    27   ar
    23     4     8    1
    24     8     9    1
    25    17    12   ar
    26     9     1    1
    27    21    19    1
    28    27    22   ar
    29    14    18    1
    30     7    10    1
@<TRIPOS>MOLECULE
*****
 27 30 0 0 0
SMALL
GASTEIGER

@<TRIPOS>ATOM
      1 C         142.2076  138.2199  159.2142 C.3     1  UNL1        0.0634
      2 C         140.7830  138.5754  159.5208 C.3     1  UNL1        0.0292
      3 C         140.3069  138.6056  160.9429 C.3     1  UNL1        0.0954
      4 N         141.2554  138.2803  162.0584 N.am    1  UNL1       -0.2642
      5 C         140.7793  138.3106  163.4806 C.2     1  UNL1        0.3039
      6 O         141.7278  137.9853  164.5961 O.2     1  UNL1       -0.2526
      7 N         139.3547  138.6661  163.7871 N.am    1  UNL1       -0.2901
      8 C         142.6801  137.9248  161.7519 C.3     1  UNL1        0.0954
      9 C         143.1561  137.8946  160.3298 C.3     1  UNL1        0.0292
     10 H         138.7321  138.8796  163.0549 H       1  UNL1        0.1509
     11 C         142.8697  135.5427  157.4695 C.3     1  UNL1        0.0390
     12 C         142.9881  136.9591  156.9901 C.ar    1  UNL1        0.0669
     13 C         143.4315  137.3936  155.6247 C.ar    1  UNL1        0.2563
     14 O         143.8345  136.4879  154.4988 O.3     1  UNL1       -0.4902
     15 N         143.4013  138.8927  155.5827 N.ar    1  UNL1       -0.0397
     16 O         142.9392  139.3847  156.9222 O.2     1  UNL1       -0.3552
     17 C         142.6837  138.1896  157.7921 C.ar    1  UNL1        0.1532
     18 H         143.8222  135.5586  154.6178 H       1  UNL1        0.2938
     19 C         138.8785  138.6963  165.2093 C.3     1  UNL1        0.0774
     20 C         138.0277  138.1291  166.3066 C.3     1  UNL1        0.0259
     21 C         138.9047  139.3160  166.5750 C.3     1  UNL1        0.0420
     22 C         139.4260  140.3590  167.5185 C.ar    1  UNL1       -0.0208
     23 C         139.2520  140.1861  168.9983 C.ar    1  UNL1       -0.0042
     24 C         139.7734  141.2292  169.9417 C.ar    1  UNL1       -0.0003
     25 C         140.4689  142.4452  169.4054 C.ar    1  UNL1       -0.0000
     26 C         140.6429  142.6181  167.9256 C.ar    1  UNL1       -0.0003
     27 C         140.1215  141.5750  166.9822 C.ar    1  UNL1       -0.0042
@<TRIPOS>BOND
     1    11    12    1
     2    12    13   ar
     3    13    14    1
     4    13    15   ar
     5    15    16   ar
     6    16    17   ar
     7    17     1    1
     8     1     2    1
     9     2     3    1
    10     3     4    1
    11     4     5   am
    12     5     6    2
    13     5     7   am
    14     7    19    1
    15    19    20    1
    16    20    21    1
    17    21    22    1
    18    22    23   ar
    19    23    24   ar
    20    24    25   ar
    21    25    26   ar
    22    26    27   ar
    23     4     8    1
    24     8     9    1
    25    17    12   ar
    26     9     1    1
    27    21    19    1
    28    27    22   ar
    29    14    18    1
    30     7    10    1
@<TRIPOS>MOLECULE
*****
 27 30 0 0 0
SMALL
GASTEIGER

@<TRIPOS>ATOM
      1 C         141.2845  140.2030  167.1386 C.3     1  UNL1        0.0634
      2 C         140.5657  140.7682  165.9496 C.3     1  UNL1        0.0292
      3 C         141.1163  140.5572  164.5704 C.3     1  UNL1        0.0954
      4 N         142.3856  139.7810  164.3802 N.am    1  UNL1       -0.2642
      5 C         142.9362  139.5700  163.0008 C.2     1  UNL1        0.3039
      6 O         144.2055  138.7937  162.8106 O.2     1  UNL1       -0.2526
      7 N         142.2173  140.1352  161.8118 N.am    1  UNL1       -0.2901
      8 C         143.1044  139.2157  165.5692 C.3     1  UNL1        0.0954
      9 C         142.5539  139.4267  166.9484 C.3     1  UNL1        0.0292
     10 H         141.3842  140.6447  161.9367 H       1  UNL1        0.1509
     11 C         142.3252  142.4136  169.3020 C.3     1  UNL1        0.0390
     12 C         141.2123  141.4300  169.5123 C.ar    1  UNL1        0.0669
     13 C         140.3824  141.2899  170.7539 C.ar    1  UNL1        0.2563
     14 O         140.5197  142.1087  172.0032 O.3     1  UNL1       -0.4902
     15 N         139.3911  140.1872  170.5270 N.ar    1  UNL1       -0.0397
     16 O         139.6084  139.6459  169.1450 O.2     1  UNL1       -0.3552
     17 C         140.7340  140.4139  168.5180 C.ar    1  UNL1        0.1532
     18 H         141.1714  142.7800  172.0542 H       1  UNL1        0.2938
     19 C         142.7679  139.9242  160.4325 C.3     1  UNL1        0.0774
     20 C         143.8359  140.1702  159.4085 C.3     1  UNL1        0.0259
     21 C         142.6534  139.3127  159.0676 C.3     1  UNL1        0.0420
     22 C         141.9045  138.4647  158.0828 C.ar    1  UNL1       -0.0208
     23 C         140.4814  138.7925  157.7403 C.ar    1  UNL1       -0.0042
     24 C         139.7325  137.9444  156.7555 C.ar    1  UNL1       -0.0003
     25 C         140.4068  136.7684  156.1131 C.ar    1  UNL1       -0.0000
     26 C         141.8299  136.4406  156.4556 C.ar    1  UNL1       -0.0003
     27 C         142.5787  137.2887  157.4405 C.ar    1  UNL1       -0.0042
@<TRIPOS>BOND
     1    11    12    1
     2    12    13   ar
     3    13    14    1
     4    13    15   ar
     5    15    16   ar
     6    16    17   ar
     7    17     1    1
     8     1     2    1
     9     2     3    1
    10     3     4    1
    11     4     5   am
    12     5     6    2
    13     5     7   am
    14     7    19    1
    15    19    20    1
    16    20    21    1
    17    21    22    1
    18    22    23   ar
    19    23    24   ar
    20    24    25   ar
    21    25    26   ar
    22    26    27   ar
    23     4     8    1
    24     8     9    1
    25    17    12   ar
    26     9     1    1
    27    21    19    1
    28    27    22   ar
    29    14    18    1
    30     7    10    1
@<TRIPOS>MOLECULE
*****
 27 30 0 0 0
SMALL
GASTEIGER

@<TRIPOS>ATOM
      1 C         143.1366  139.6956  160.0497 C.3     1  UNL1        0.0634
      2 C         141.9657  140.5206  160.4952 C.3     1  UNL1        0.0292
      3 C         141.3679  140.3023  161.8534 C.3     1  UNL1        0.0954
      4 N         141.9409  139.2590  162.7662 N.am    1  UNL1       -0.2642
      5 C         141.3431  139.0407  164.1245 C.2     1  UNL1        0.3039
      6 O         141.9161  137.9974  165.0373 O.2     1  UNL1       -0.2526
      7 N         140.1723  139.8657  164.5700 N.am    1  UNL1       -0.2901
      8 C         143.1118  138.4340  162.3207 C.3     1  UNL1        0.0954
      9 C         143.7096  138.6523  160.9624 C.3     1  UNL1        0.0292
     10 H         139.7962  140.5505  163.9709 H       1  UNL1        0.1509
     11 C         144.4872  142.4635  158.9705 C.3     1  UNL1        0.0390
     12 C         144.3552  141.1861  158.1953 C.ar    1  UNL1        0.0669
     13 C         144.8209  140.9568  156.7880 C.ar    1  UNL1        0.2563
     14 O         145.5003  141.9645  155.9089 O.3     1  UNL1       -0.4902
     15 N         144.4879  139.5427  156.4142 N.ar    1  UNL1       -0.0397
     16 O         143.8165  138.8982  157.5906 O.2     1  UNL1       -0.3552
     17 C         143.7344  139.9139  158.6913 C.ar    1  UNL1        0.1532
     18 H         145.6681  142.8287  156.2297 H       1  UNL1        0.2938
     19 C         139.5744  139.6474  165.9283 C.3     1  UNL1        0.0774
     20 C         138.4573  139.1365  166.7891 C.3     1  UNL1        0.0259
     21 C         139.6560  139.7803  167.4202 C.3     1  UNL1        0.0420
     22 C         140.3952  140.2288  168.6459 C.ar    1  UNL1       -0.0208
     23 C         139.7344  141.1549  169.6235 C.ar    1  UNL1       -0.0042
     24 C         140.4736  141.6033  170.8492 C.ar    1  UNL1       -0.0003
     25 C         141.8738  141.1257  171.0973 C.ar    1  UNL1       -0.0000
     26 C         142.5346  140.1996  170.1198 C.ar    1  UNL1       -0.0003
     27 C         141.7953  139.7512  168.8940 C.ar    1  UNL1       -0.0042
@<TRIPOS>BOND
     1    11    12    1
     2    12    13   ar
     3    13    14    1
     4    13    15   ar
     5    15    16   ar
     6    16    17   ar
     7    17     1    1
     8     1     2    1
     9     2     3    1
    10     3     4    1
    11     4     5   am
    12     5     6    2
    13     5     7   am
    14     7    19    1
    15    19    20    1
    16    20    21    1
    17    21    22    1
    18    22    23   ar
    19    23    24   ar
    20    24    25   ar
    21    25    26   ar
    22    26    27   ar
    23     4     8    1
    24     8     9    1
    25    17    12   ar
    26     9     1    1
    27    21    19    1
    28    27    22   ar
    29    14    18    1
    30     7    10    1
