@<TRIPOS>MOLECULE
*****
 36 41 0 0 0
SMALL
GASTEIGER

@<TRIPOS>ATOM
      1 C         142.8033  137.3098  156.8351 C.ar    1  UNL1        0.1028
      2 C         142.9385  137.6796  155.3876 C.ar    1  UNL1        0.0131
      3 C         142.6471  139.0817  154.9414 C.ar    1  UNL1       -0.0015
      4 C         142.1992  140.3533  155.6868 C.ar    1  UNL1        0.0035
      5 C         142.3663  139.1581  156.5776 C.ar    1  UNL1        0.0358
      6 C         142.3765  138.3421  157.8362 C.ar    1  UNL1        0.1545
      7 O         142.2286  138.0158  159.2927 O.3     1  UNL1       -0.4528
      8 C         141.8449  138.4414  161.0073 C.ar    1  UNL1        0.1453
      9 C         141.9741  137.3276  162.0036 C.ar    1  UNL1        0.0375
     10 C         141.6779  137.5791  163.4523 C.ar    1  UNL1        0.0031
     11 C         141.2525  138.9445  163.9049 C.ar    1  UNL1        0.0002
     12 C         141.1234  140.0583  162.9086 C.ar    1  UNL1        0.0042
     13 C         141.4196  139.8068  161.4598 C.ar    1  UNL1        0.0375
     14 C         140.7012  141.4384  163.3174 C.ar    1  UNL1        0.0138
     15 C         140.6577  140.7766  164.6628 C.ar    1  UNL1        0.0012
     16 C         140.2602  141.5661  165.8746 C.ar    1  UNL1        0.0001
     17 C         139.9060  143.0175  165.7411 C.ar    1  UNL1        0.0013
     18 C         139.9494  143.6795  164.3958 C.ar    1  UNL1        0.0149
     19 C         140.3470  142.8899  163.1839 C.ar    1  UNL1        0.0538
     20 N         140.1088  144.2167  162.5260 N.am    1  UNL1       -0.2575
     21 C         139.6909  145.6127  162.8820 C.3     1  UNL1        0.1001
     22 C         139.6807  146.4285  161.6233 C.3     1  UNL1        0.0470
     23 C         140.0886  145.8207  160.0516 C.3     1  UNL1        0.1340
     24 N         140.3095  145.8813  158.5692 N.3     1  UNL1       -0.2863
     25 C         140.6513  145.4132  157.1857 C.3     1  UNL1        0.1151
     26 C         141.0679  144.4796  156.0879 C.ar    1  UNL1        0.0739
     27 C         140.9620  145.5401  155.0324 C.ar    1  UNL1        0.1147
     28 N         141.3317  144.9226  153.7164 N.ar    1  UNL1       -0.2226
     29 C         141.6660  143.4806  153.9586 C.ar    1  UNL1        0.1786
     30 N         141.5030  143.2068  155.4243 N.ar    1  UNL1       -0.3070
     31 C         141.8979  141.7665  155.2843 C.3     1  UNL1        0.1341
     32 C         140.0186  145.2398  161.4327 C.2     1  UNL1        0.2437
     33 O         139.7951  145.7549  161.9985 O.2     1  UNL1       -0.2731
     34 H         140.9771  146.6521  158.5907 H       1  UNL1        0.1240
     35 N         143.3863  134.5056  157.7276 N.1     1  UNL1       -0.1907
     36 C         143.0948  135.9077  157.2814 C.1     1  UNL1        0.1035
@<TRIPOS>BOND
     1    35    36    3
     2    36     1    1
     3     1     2   ar
     4     2     3   ar
     5     3     4   ar
     6     4     5   ar
     7     5     6   ar
     8     6     7    1
     9     7     8    1
    10     8     9   ar
    11     9    10   ar
    12    10    11   ar
    13    11    12   ar
    14    12    13   ar
    15    12    14    1
    16    14    15   ar
    17    15    16   ar
    18    16    17   ar
    19    17    18   ar
    20    18    19   ar
    21    19    20    1
    22    20    21    1
    23    21    22    1
    24    23    22    1
    25    23    24    1
    26    24    25    1
    27    25    26    1
    28    26    27   ar
    29    27    28   ar
    30    28    29   ar
    31    29    30   ar
    32    30    31    1
    33    23    32    1
    34    32    33    2
    35     6     1   ar
    36    13     8   ar
    37    19    14   ar
    38    32    20   am
    39    31     4    1
    40    30    26   ar
    41    24    34    1
@<TRIPOS>MOLECULE
*****
 36 41 0 0 0
SMALL
GASTEIGER

@<TRIPOS>ATOM
      1 C         139.5703  146.2215  156.3610 C.ar    1  UNL1        0.1028
      2 C         139.6126  145.8614  154.9054 C.ar    1  UNL1        0.0131
      3 C         140.1602  144.5322  154.4773 C.ar    1  UNL1       -0.0015
      4 C         140.7452  143.3350  155.2503 C.ar    1  UNL1        0.0035
      5 C         140.3176  144.4718  156.1305 C.ar    1  UNL1        0.0358
      6 C         140.0757  145.2525  157.3883 C.ar    1  UNL1        0.1545
      7 O         140.0523  145.5716  158.8538 O.3     1  UNL1       -0.4528
      8 C         140.3607  145.1814  160.5918 C.ar    1  UNL1        0.1453
      9 C         139.9750  146.2420  161.5799 C.ar    1  UNL1        0.0375
     10 C         140.1907  146.0146  163.0467 C.ar    1  UNL1        0.0031
     11 C         140.7922  144.7265  163.5255 C.ar    1  UNL1        0.0002
     12 C         141.1780  143.6660  162.5374 C.ar    1  UNL1        0.0042
     13 C         140.9622  143.8934  161.0706 C.ar    1  UNL1        0.0375
     14 C         141.7822  142.3637  162.9723 C.ar    1  UNL1        0.0138
     15 C         141.6109  142.9994  164.3201 C.ar    1  UNL1        0.0012
     16 C         142.0317  142.2614  165.5564 C.ar    1  UNL1        0.0001
     17 C         142.6239  140.8878  165.4448 C.ar    1  UNL1        0.0013
     18 C         142.7952  140.2521  164.0970 C.ar    1  UNL1        0.0149
     19 C         142.3743  140.9901  162.8607 C.ar    1  UNL1        0.0538
     20 N         142.8745  139.7305  162.2178 N.am    1  UNL1       -0.2575
     21 C         143.4812  138.4129  162.5996 C.3     1  UNL1        0.1001
     22 C         143.7231  137.6323  161.3418 C.3     1  UNL1        0.0470
     23 C         143.3500  138.1958  159.7451 C.3     1  UNL1        0.1340
     24 N         143.2612  138.1278  158.2493 N.3     1  UNL1       -0.2863
     25 C         142.9606  138.5605  156.8448 C.3     1  UNL1        0.1151
     26 C         142.4887  139.4355  155.7214 C.ar    1  UNL1        0.0739
     27 C         142.8477  138.4250  154.6726 C.ar    1  UNL1        0.1147
     28 N         142.4903  138.9995  153.3340 N.ar    1  UNL1       -0.2226
     29 C         141.9104  140.3650  153.5554 C.ar    1  UNL1        0.1786
     30 N         141.9094  140.6345  155.0310 N.ar    1  UNL1       -0.3070
     31 C         141.3008  141.9956  154.8665 C.3     1  UNL1        0.1341
     32 C         143.2150  138.7551  161.1303 C.2     1  UNL1        0.2437
     33 O         143.4723  138.2720  161.7098 O.2     1  UNL1       -0.2731
     34 H         142.7265  137.2600  158.2120 H       1  UNL1        0.1240
     35 N         138.4750  148.8800  157.2171 N.1     1  UNL1       -0.1907
     36 C         139.0227  147.5507  156.7891 C.1     1  UNL1        0.1035
@<TRIPOS>BOND
     1    35    36    3
     2    36     1    1
     3     1     2   ar
     4     2     3   ar
     5     3     4   ar
     6     4     5   ar
     7     5     6   ar
     8     6     7    1
     9     7     8    1
    10     8     9   ar
    11     9    10   ar
    12    10    11   ar
    13    11    12   ar
    14    12    13   ar
    15    12    14    1
    16    14    15   ar
    17    15    16   ar
    18    16    17   ar
    19    17    18   ar
    20    18    19   ar
    21    19    20    1
    22    20    21    1
    23    21    22    1
    24    23    22    1
    25    23    24    1
    26    24    25    1
    27    25    26    1
    28    26    27   ar
    29    27    28   ar
    30    28    29   ar
    31    29    30   ar
    32    30    31    1
    33    23    32    1
    34    32    33    2
    35     6     1   ar
    36    13     8   ar
    37    19    14   ar
    38    32    20   am
    39    31     4    1
    40    30    26   ar
    41    24    34    1
@<TRIPOS>MOLECULE
*****
 36 41 0 0 0
SMALL
GASTEIGER

@<TRIPOS>ATOM
      1 C         140.9868  144.4571  155.5570 C.ar    1  UNL1        0.1028
      2 C         141.3837  143.6324  154.3685 C.ar    1  UNL1        0.0131
      3 C         141.7797  142.1971  154.5501 C.ar    1  UNL1       -0.0015
      4 C         141.8860  141.2812  155.7842 C.ar    1  UNL1        0.0035
      5 C         141.4362  142.6760  156.1039 C.ar    1  UNL1        0.0358
      6 C         140.9860  143.8464  156.9270 C.ar    1  UNL1        0.1545
      7 O         140.5964  144.6343  158.1425 O.3     1  UNL1       -0.4528
      8 C         140.3098  144.8193  159.9178 C.ar    1  UNL1        0.1453
      9 C         139.8540  146.1749  160.3702 C.ar    1  UNL1        0.0375
     10 C         139.5889  146.4304  161.8242 C.ar    1  UNL1        0.0031
     11 C         139.7795  145.3302  162.8259 C.ar    1  UNL1        0.0002
     12 C         140.2352  143.9747  162.3736 C.ar    1  UNL1        0.0042
     13 C         140.5003  143.7192  160.9195 C.ar    1  UNL1        0.0375
     14 C         140.4385  142.8464  163.3409 C.ar    1  UNL1        0.0138
     15 C         140.0020  143.9047  164.3102 C.ar    1  UNL1        0.0012
     16 C         139.9033  143.5874  165.7729 C.ar    1  UNL1        0.0001
     17 C         140.2410  142.2117  166.2663 C.ar    1  UNL1        0.0013
     18 C         140.6775  141.1534  165.2971 C.ar    1  UNL1        0.0149
     19 C         140.7762  141.4708  163.8343 C.ar    1  UNL1        0.0538
     20 N         141.2028  140.0335  163.7872 N.am    1  UNL1       -0.2575
     21 C         141.4211  138.8729  164.7122 C.3     1  UNL1        0.1001
     22 C         141.8712  137.7025  163.8890 C.3     1  UNL1        0.0470
     23 C         142.0877  137.7325  162.1690 C.3     1  UNL1        0.1340
     24 N         142.4266  137.1796  160.8165 N.3     1  UNL1       -0.2863
     25 C         142.6314  137.1446  159.3309 C.3     1  UNL1        0.1151
     26 C         142.6744  137.6323  157.9129 C.ar    1  UNL1        0.0739
     27 C         143.1319  136.3058  157.3827 C.ar    1  UNL1        0.1147
     28 N         143.2901  136.4304  155.8964 N.ar    1  UNL1       -0.2226
     29 C         142.9304  137.8339  155.5080 C.ar    1  UNL1        0.1786
     30 N         142.5499  138.5768  156.7543 N.ar    1  UNL1       -0.3070
     31 C         142.2747  139.8504  156.0113 C.3     1  UNL1        0.1341
     32 C         141.6606  138.7286  163.2060 C.2     1  UNL1        0.2437
     33 O         141.6456  138.4460  163.9512 O.2     1  UNL1       -0.2731
     34 H         141.7767  136.3944  160.8546 H       1  UNL1        0.1240
     35 N         140.1949  147.3278  155.1937 N.1     1  UNL1       -0.1907
     36 C         140.5908  145.8924  155.3753 C.1     1  UNL1        0.1035
@<TRIPOS>BOND
     1    35    36    3
     2    36     1    1
     3     1     2   ar
     4     2     3   ar
     5     3     4   ar
     6     4     5   ar
     7     5     6   ar
     8     6     7    1
     9     7     8    1
    10     8     9   ar
    11     9    10   ar
    12    10    11   ar
    13    11    12   ar
    14    12    13   ar
    15    12    14    1
    16    14    15   ar
    17    15    16   ar
    18    16    17   ar
    19    17    18   ar
    20    18    19   ar
    21    19    20    1
    22    20    21    1
    23    21    22    1
    24    23    22    1
    25    23    24    1
    26    24    25    1
    27    25    26    1
    28    26    27   ar
    29    27    28   ar
    30    28    29   ar
    31    29    30   ar
    32    30    31    1
    33    23    32    1
    34    32    33    2
    35     6     1   ar
    36    13     8   ar
    37    19    14   ar
    38    32    20   am
    39    31     4    1
    40    30    26   ar
    41    24    34    1
@<TRIPOS>MOLECULE
*****
 36 41 0 0 0
SMALL
GASTEIGER

@<TRIPOS>ATOM
      1 C         142.7206  135.7366  156.5252 C.ar    1  UNL1        0.1028
      2 C         142.2070  135.5226  155.1321 C.ar    1  UNL1        0.0131
      3 C         141.5048  136.6356  154.4124 C.ar    1  UNL1       -0.0015
      4 C         141.1519  138.0840  154.8004 C.ar    1  UNL1        0.0035
      5 C         141.8765  137.3300  155.8757 C.ar    1  UNL1        0.0358
      6 C         142.5318  137.0637  157.1984 C.ar    1  UNL1        0.1545
      7 O         143.0292  137.3210  158.5899 O.3     1  UNL1       -0.4528
      8 C         143.2728  138.3651  160.0455 C.ar    1  UNL1        0.1453
      9 C         143.9892  137.7258  161.1979 C.ar    1  UNL1        0.0375
     10 C         144.2406  138.5091  162.4522 C.ar    1  UNL1        0.0031
     11 C         143.7758  139.9316  162.5540 C.ar    1  UNL1        0.0002
     12 C         143.0595  140.5708  161.4016 C.ar    1  UNL1        0.0042
     13 C         142.8080  139.7876  160.1473 C.ar    1  UNL1        0.0375
     14 C         142.5777  141.9901  161.4605 C.ar    1  UNL1        0.0138
     15 C         143.1893  141.8979  162.8270 C.ar    1  UNL1        0.0012
     16 C         143.1551  143.0831  163.7457 C.ar    1  UNL1        0.0001
     17 C         142.5093  144.3607  163.2978 C.ar    1  UNL1        0.0013
     18 C         141.8976  144.4531  161.9313 C.ar    1  UNL1        0.0149
     19 C         141.9318  143.2677  161.0127 C.ar    1  UNL1        0.0538
     20 N         141.2091  144.2311  160.1184 N.am    1  UNL1       -0.2575
     21 C         140.7075  145.6448  160.1260 C.3     1  UNL1        0.1001
     22 C         140.0522  145.9110  158.8032 C.3     1  UNL1        0.0470
     23 C         139.9208  144.7547  157.5180 C.3     1  UNL1        0.1340
     24 N         139.5293  144.2443  156.1630 N.3     1  UNL1       -0.2863
     25 C         139.3853  143.2877  155.0166 C.3     1  UNL1        0.1151
     26 C         139.5085  142.0141  154.2336 C.ar    1  UNL1        0.0739
     27 C         138.8001  142.5819  153.0395 C.ar    1  UNL1        0.1147
     28 N         138.7359  141.5143  151.9878 N.ar    1  UNL1       -0.2226
     29 C         139.4046  140.2868  152.5319 C.ar    1  UNL1        0.1786
     30 N         139.8821  140.5957  153.9199 N.ar    1  UNL1       -0.3070
     31 C         140.4558  139.2239  154.1177 C.3     1  UNL1        0.1341
     32 C         140.5072  144.7502  158.8986 C.2     1  UNL1        0.2437
     33 O         140.4293  145.4377  159.2945 O.2     1  UNL1       -0.2731
     34 H         139.9932  144.9810  155.6316 H       1  UNL1        0.1240
     35 N         144.1251  133.5105  157.9646 N.1     1  UNL1       -0.1907
     36 C         143.4228  134.6236  157.2449 C.1     1  UNL1        0.1035
@<TRIPOS>BOND
     1    35    36    3
     2    36     1    1
     3     1     2   ar
     4     2     3   ar
     5     3     4   ar
     6     4     5   ar
     7     5     6   ar
     8     6     7    1
     9     7     8    1
    10     8     9   ar
    11     9    10   ar
    12    10    11   ar
    13    11    12   ar
    14    12    13   ar
    15    12    14    1
    16    14    15   ar
    17    15    16   ar
    18    16    17   ar
    19    17    18   ar
    20    18    19   ar
    21    19    20    1
    22    20    21    1
    23    21    22    1
    24    23    22    1
    25    23    24    1
    26    24    25    1
    27    25    26    1
    28    26    27   ar
    29    27    28   ar
    30    28    29   ar
    31    29    30   ar
    32    30    31    1
    33    23    32    1
    34    32    33    2
    35     6     1   ar
    36    13     8   ar
    37    19    14   ar
    38    32    20   am
    39    31     4    1
    40    30    26   ar
    41    24    34    1
@<TRIPOS>MOLECULE
*****
 36 41 0 0 0
SMALL
GASTEIGER

@<TRIPOS>ATOM
      1 C         141.0680  143.9062  162.6920 C.ar    1  UNL1        0.1028
      2 C         140.5907  145.3217  162.5554 C.ar    1  UNL1        0.0131
      3 C         140.2846  145.8822  161.1982 C.ar    1  UNL1       -0.0015
      4 C         140.3500  145.2942  159.7759 C.ar    1  UNL1        0.0035
      5 C         140.7632  144.3299  160.8479 C.ar    1  UNL1        0.0358
      6 C         141.2392  143.0514  161.4714 C.ar    1  UNL1        0.1545
      7 O         141.7140  141.6314  161.5622 O.3     1  UNL1       -0.4528
      8 C         142.1728  140.0379  160.8422 C.ar    1  UNL1        0.1453
      9 C         142.6074  138.9808  161.8136 C.ar    1  UNL1        0.0375
     10 C         143.0085  137.6240  161.3156 C.ar    1  UNL1        0.0031
     11 C         142.9750  137.3242  159.8463 C.ar    1  UNL1        0.0002
     12 C         142.5404  138.3813  158.8749 C.ar    1  UNL1        0.0042
     13 C         142.1393  139.7381  159.3728 C.ar    1  UNL1        0.0375
     14 C         142.4921  138.1245  157.3978 C.ar    1  UNL1        0.0138
     15 C         142.9750  136.7782  157.8496 C.ar    1  UNL1        0.0012
     16 C         143.2390  135.6990  156.8418 C.ar    1  UNL1        0.0001
     17 C         143.0201  135.9663  155.3821 C.ar    1  UNL1        0.0013
     18 C         142.5372  137.3126  154.9302 C.ar    1  UNL1        0.0149
     19 C         142.2731  138.3918  155.9381 C.ar    1  UNL1        0.0538
     20 N         141.9132  139.1468  154.6929 N.am    1  UNL1       -0.2575
     21 C         141.8471  138.9420  153.2084 C.3     1  UNL1        0.1001
     22 C         141.3710  140.2205  152.5850 C.3     1  UNL1        0.0470
     23 C         140.9773  141.6602  153.4672 C.3     1  UNL1        0.1340
     24 N         140.5276  143.0792  153.6521 N.3     1  UNL1       -0.2863
     25 C         140.1727  144.3530  154.3603 C.3     1  UNL1        0.1151
     26 C         139.9605  145.3095  155.4962 C.ar    1  UNL1        0.0739
     27 C         139.5148  146.4180  154.5892 C.ar    1  UNL1        0.1147
     28 N         139.1985  147.6130  155.4387 N.ar    1  UNL1       -0.2226
     29 C         139.4487  147.2432  156.8707 C.ar    1  UNL1        0.1786
     30 N         139.9196  145.8195  156.9062 N.ar    1  UNL1       -0.3070
     31 C         140.0556  145.8142  158.4001 C.3     1  UNL1        0.1341
     32 C         141.4609  140.2876  153.8304 C.2     1  UNL1        0.2437
     33 O         141.5661  139.7979  153.2103 O.2     1  UNL1       -0.2731
     34 H         139.6381  142.9753  153.1639 H       1  UNL1        0.1240
     35 N         141.6802  142.7852  165.4066 N.1     1  UNL1       -0.1907
     36 C         141.3741  143.3457  164.0493 C.1     1  UNL1        0.1035
@<TRIPOS>BOND
     1    35    36    3
     2    36     1    1
     3     1     2   ar
     4     2     3   ar
     5     3     4   ar
     6     4     5   ar
     7     5     6   ar
     8     6     7    1
     9     7     8    1
    10     8     9   ar
    11     9    10   ar
    12    10    11   ar
    13    11    12   ar
    14    12    13   ar
    15    12    14    1
    16    14    15   ar
    17    15    16   ar
    18    16    17   ar
    19    17    18   ar
    20    18    19   ar
    21    19    20    1
    22    20    21    1
    23    21    22    1
    24    23    22    1
    25    23    24    1
    26    24    25    1
    27    25    26    1
    28    26    27   ar
    29    27    28   ar
    30    28    29   ar
    31    29    30   ar
    32    30    31    1
    33    23    32    1
    34    32    33    2
    35     6     1   ar
    36    13     8   ar
    37    19    14   ar
    38    32    20   am
    39    31     4    1
    40    30    26   ar
    41    24    34    1
@<TRIPOS>MOLECULE
*****
 36 41 0 0 0
SMALL
GASTEIGER

@<TRIPOS>ATOM
      1 C         142.6452  139.4730  162.1936 C.ar    1  UNL1        0.1028
      2 C         143.0892  138.0471  162.0516 C.ar    1  UNL1        0.0131
      3 C         143.1126  137.4002  160.6985 C.ar    1  UNL1       -0.0015
      4 C         142.7551  137.8991  159.2856 C.ar    1  UNL1        0.0035
      5 C         142.5671  138.9323  160.3566 C.ar    1  UNL1        0.0358
      6 C         142.2246  140.2517  160.9826 C.ar    1  UNL1        0.1545
      7 O         141.7738  141.6790  161.0790 O.3     1  UNL1       -0.4528
      8 C         141.1717  143.2289  160.3693 C.ar    1  UNL1        0.1453
      9 C         140.9418  144.3486  161.3406 C.ar    1  UNL1        0.0375
     10 C         140.4426  145.6756  160.8509 C.ar    1  UNL1        0.0031
     11 C         140.1733  145.8829  159.3899 C.ar    1  UNL1        0.0002
     12 C         140.4032  144.7632  158.4186 C.ar    1  UNL1        0.0042
     13 C         140.9024  143.4362  158.9083 C.ar    1  UNL1        0.0375
     14 C         140.1470  144.9269  156.9498 C.ar    1  UNL1        0.0138
     15 C         139.7623  146.3033  157.4052 C.ar    1  UNL1        0.0012
     16 C         139.2938  147.3201  156.4069 C.ar    1  UNL1        0.0001
     17 C         139.2098  146.9604  154.9531 C.ar    1  UNL1        0.0013
     18 C         139.5945  145.5840  154.4976 C.ar    1  UNL1        0.0149
     19 C         140.0631  144.5672  155.4960 C.ar    1  UNL1        0.0538
     20 N         140.1628  143.7326  154.2536 N.am    1  UNL1       -0.2575
     21 C         139.9226  143.8439  152.7771 C.3     1  UNL1        0.1001
     22 C         140.2651  142.5245  152.1511 C.3     1  UNL1        0.0470
     23 C         140.8362  141.1388  153.0229 C.3     1  UNL1        0.1340
     24 N         141.3189  139.7298  153.2008 N.3     1  UNL1       -0.2863
     25 C         141.8157  138.4993  153.9001 C.3     1  UNL1        0.1151
     26 C         142.2594  137.6134  155.0264 C.ar    1  UNL1        0.0739
     27 C         142.5136  136.4463  154.1190 C.ar    1  UNL1        0.1147
     28 N         143.0013  135.3036  154.9593 N.ar    1  UNL1       -0.2226
     29 C         143.0486  135.7644  156.3859 C.ar    1  UNL1        0.1786
     30 N         142.5901  137.1920  156.4274 N.ar    1  UNL1       -0.3070
     31 C         142.7631  137.2916  157.9141 C.3     1  UNL1        0.1341
     32 C         140.4326  142.5360  153.3903 C.2     1  UNL1        0.2437
     33 O         140.2009  142.9870  152.7752 O.2     1  UNL1       -0.2731
     34 H         142.0892  139.7945  152.5353 H       1  UNL1        0.1240
     35 N         142.5983  140.7668  164.8999 N.1     1  UNL1       -0.1907
     36 C         142.6218  140.1199  163.5467 C.1     1  UNL1        0.1035
@<TRIPOS>BOND
     1    35    36    3
     2    36     1    1
     3     1     2   ar
     4     2     3   ar
     5     3     4   ar
     6     4     5   ar
     7     5     6   ar
     8     6     7    1
     9     7     8    1
    10     8     9   ar
    11     9    10   ar
    12    10    11   ar
    13    11    12   ar
    14    12    13   ar
    15    12    14    1
    16    14    15   ar
    17    15    16   ar
    18    16    17   ar
    19    17    18   ar
    20    18    19   ar
    21    19    20    1
    22    20    21    1
    23    21    22    1
    24    23    22    1
    25    23    24    1
    26    24    25    1
    27    25    26    1
    28    26    27   ar
    29    27    28   ar
    30    28    29   ar
    31    29    30   ar
    32    30    31    1
    33    23    32    1
    34    32    33    2
    35     6     1   ar
    36    13     8   ar
    37    19    14   ar
    38    32    20   am
    39    31     4    1
    40    30    26   ar
    41    24    34    1
@<TRIPOS>MOLECULE
*****
 36 41 0 0 0
SMALL
GASTEIGER

@<TRIPOS>ATOM
      1 C         135.1889  140.7311  156.1894 C.ar    1  UNL1        0.1028
      2 C         135.0179  141.3259  154.8230 C.ar    1  UNL1        0.0131
      3 C         136.1675  142.0255  154.1604 C.ar    1  UNL1       -0.0015
      4 C         137.6201  142.3051  154.5901 C.ar    1  UNL1        0.0035
      5 C         136.8222  141.5513  155.6123 C.ar    1  UNL1        0.0358
      6 C         136.5095  140.8359  156.8931 C.ar    1  UNL1        0.1545
      7 O         136.7243  140.2557  158.2595 O.3     1  UNL1       -0.4528
      8 C         137.7330  139.8972  159.7163 C.ar    1  UNL1        0.1453
      9 C         137.0486  139.1434  160.8178 C.ar    1  UNL1        0.0375
     10 C         137.8000  138.7972  162.0690 C.ar    1  UNL1        0.0031
     11 C         139.2358  139.2048  162.2186 C.ar    1  UNL1        0.0002
     12 C         139.9202  139.9586  161.1171 C.ar    1  UNL1        0.0042
     13 C         139.1688  140.3048  159.8660 C.ar    1  UNL1        0.0375
     14 C         141.3541  140.3855  161.2249 C.ar    1  UNL1        0.0138
     15 C         141.2161  139.7052  162.5546 C.ar    1  UNL1        0.0012
     16 C         142.3852  139.6477  163.4926 C.ar    1  UNL1        0.0001
     17 C         143.6922  140.2705  163.1010 C.ar    1  UNL1        0.0013
     18 C         143.8304  140.9509  161.7713 C.ar    1  UNL1        0.0149
     19 C         142.6612  141.0084  160.8332 C.ar    1  UNL1        0.0538
     20 N         143.6651  141.7432  159.9951 N.am    1  UNL1       -0.2575
     21 C         145.0950  142.1928  160.0525 C.3     1  UNL1        0.1001
     22 C         145.4076  142.9081  158.7717 C.3     1  UNL1        0.0470
     23 C         144.2798  143.1495  157.4771 C.3     1  UNL1        0.1340
     24 N         143.8077  143.6311  156.1373 N.3     1  UNL1       -0.2863
     25 C         142.8774  143.8704  154.9851 C.3     1  UNL1        0.1151
     26 C         141.6146  143.8350  154.1763 C.ar    1  UNL1        0.0739
     27 C         142.2280  144.5857  153.0317 C.ar    1  UNL1        0.1147
     28 N         141.1824  144.7443  151.9681 N.ar    1  UNL1       -0.2226
     29 C         139.9227  144.0917  152.4553 C.ar    1  UNL1        0.1786
     30 N         140.1899  143.5297  153.8202 N.ar    1  UNL1       -0.3070
     31 C         138.7956  142.9956  153.9646 C.3     1  UNL1        0.1341
     32 C         144.2301  142.4905  158.8236 C.2     1  UNL1        0.2437
     33 O         144.9127  142.5224  159.2341 O.2     1  UNL1       -0.2731
     34 H         144.5372  143.1703  155.5934 H       1  UNL1        0.1240
     35 N         132.8898  139.3318  157.5146 N.1     1  UNL1       -0.1907
     36 C         134.0394  140.0315  156.8520 C.1     1  UNL1        0.1035
@<TRIPOS>BOND
     1    35    36    3
     2    36     1    1
     3     1     2   ar
     4     2     3   ar
     5     3     4   ar
     6     4     5   ar
     7     5     6   ar
     8     6     7    1
     9     7     8    1
    10     8     9   ar
    11     9    10   ar
    12    10    11   ar
    13    11    12   ar
    14    12    13   ar
    15    12    14    1
    16    14    15   ar
    17    15    16   ar
    18    16    17   ar
    19    17    18   ar
    20    18    19   ar
    21    19    20    1
    22    20    21    1
    23    21    22    1
    24    23    22    1
    25    23    24    1
    26    24    25    1
    27    25    26    1
    28    26    27   ar
    29    27    28   ar
    30    28    29   ar
    31    29    30   ar
    32    30    31    1
    33    23    32    1
    34    32    33    2
    35     6     1   ar
    36    13     8   ar
    37    19    14   ar
    38    32    20   am
    39    31     4    1
    40    30    26   ar
    41    24    34    1
@<TRIPOS>MOLECULE
*****
 36 41 0 0 0
SMALL
GASTEIGER

@<TRIPOS>ATOM
      1 C         140.4981  145.1205  158.1913 C.ar    1  UNL1        0.1028
      2 C         140.7398  145.5098  159.6197 C.ar    1  UNL1        0.0131
      3 C         141.2654  144.4979  160.5942 C.ar    1  UNL1       -0.0015
      4 C         141.6529  143.0126  160.4650 C.ar    1  UNL1        0.0035
      5 C         141.1653  143.6234  159.1847 C.ar    1  UNL1        0.0358
      6 C         140.7821  143.7193  157.7376 C.ar    1  UNL1        0.1545
      7 O         140.5549  143.2873  156.3193 O.3     1  UNL1       -0.4528
      8 C         140.5711  142.0671  154.9855 C.ar    1  UNL1        0.1453
      9 C         140.1039  142.5543  153.6460 C.ar    1  UNL1        0.0375
     10 C         140.0797  141.6183  152.4742 C.ar    1  UNL1        0.0031
     11 C         140.5228  140.1951  152.6418 C.ar    1  UNL1        0.0002
     12 C         140.9901  139.7078  153.9813 C.ar    1  UNL1        0.0042
     13 C         141.0142  140.6438  155.1531 C.ar    1  UNL1        0.0375
     14 C         141.4417  138.2932  154.1935 C.ar    1  UNL1        0.0138
     15 C         141.1057  138.2110  152.7339 C.ar    1  UNL1        0.0012
     16 C         141.2883  136.9191  151.9939 C.ar    1  UNL1        0.0001
     17 C         141.8069  135.7095  152.7134 C.ar    1  UNL1        0.0013
     18 C         142.1430  135.7917  154.1729 C.ar    1  UNL1        0.0149
     19 C         141.9603  137.0836  154.9130 C.ar    1  UNL1        0.0538
     20 N         142.4760  136.2422  156.0427 N.am    1  UNL1       -0.2575
     21 C         142.9373  134.8398  156.3081 C.3     1  UNL1        0.1001
     22 C         143.3205  134.7440  157.7551 C.3     1  UNL1        0.0470
     23 C         143.2294  136.0538  158.8875 C.3     1  UNL1        0.1340
     24 N         143.3655  136.7321  160.2184 N.3     1  UNL1       -0.2863
     25 C         143.3088  137.8262  161.2430 C.3     1  UNL1        0.1151
     26 C         143.0669  139.1884  161.8228 C.ar    1  UNL1        0.0739
     27 C         143.5200  138.7774  163.1924 C.ar    1  UNL1        0.1147
     28 N         143.4058  139.9695  164.0955 N.ar    1  UNL1       -0.2226
     29 C         142.8820  141.1172  163.2841 C.ar    1  UNL1        0.1786
     30 N         142.6725  140.6345  161.8795 N.ar    1  UNL1       -0.3070
     31 C         142.1790  141.9693  161.4055 C.3     1  UNL1        0.1341
     32 C         142.9190  135.8827  157.4300 C.2     1  UNL1        0.2437
     33 O         143.0555  135.1508  157.1453 O.2     1  UNL1       -0.2731
     34 H         144.3513  136.5081  160.3537 H       1  UNL1        0.1240
     35 N         139.4469  147.1445  156.2423 N.1     1  UNL1       -0.1907
     36 C         139.9725  146.1325  157.2168 C.1     1  UNL1        0.1035
@<TRIPOS>BOND
     1    35    36    3
     2    36     1    1
     3     1     2   ar
     4     2     3   ar
     5     3     4   ar
     6     4     5   ar
     7     5     6   ar
     8     6     7    1
     9     7     8    1
    10     8     9   ar
    11     9    10   ar
    12    10    11   ar
    13    11    12   ar
    14    12    13   ar
    15    12    14    1
    16    14    15   ar
    17    15    16   ar
    18    16    17   ar
    19    17    18   ar
    20    18    19   ar
    21    19    20    1
    22    20    21    1
    23    21    22    1
    24    23    22    1
    25    23    24    1
    26    24    25    1
    27    25    26    1
    28    26    27   ar
    29    27    28   ar
    30    28    29   ar
    31    29    30   ar
    32    30    31    1
    33    23    32    1
    34    32    33    2
    35     6     1   ar
    36    13     8   ar
    37    19    14   ar
    38    32    20   am
    39    31     4    1
    40    30    26   ar
    41    24    34    1
@<TRIPOS>MOLECULE
*****
 36 41 0 0 0
SMALL
GASTEIGER

@<TRIPOS>ATOM
      1 C         141.6277  144.0041  161.0917 C.ar    1  UNL1        0.1028
      2 C         140.9350  145.2717  160.6872 C.ar    1  UNL1        0.0131
      3 C         140.1841  145.3350  159.3902 C.ar    1  UNL1       -0.0015
      4 C         139.9309  144.3105  158.2681 C.ar    1  UNL1        0.0035
      5 C         140.7609  143.7765  159.3976 C.ar    1  UNL1        0.0358
      6 C         141.5694  142.7999  160.1993 C.ar    1  UNL1        0.1545
      7 O         142.2473  141.5128  160.5647 O.3     1  UNL1       -0.4528
      8 C         142.7075  139.7916  160.2579 C.ar    1  UNL1        0.1453
      9 C         143.5428  139.1377  161.3184 C.ar    1  UNL1        0.0375
     10 C         143.9767  137.7109  161.1576 C.ar    1  UNL1        0.0031
     11 C         143.5754  136.9381  159.9363 C.ar    1  UNL1        0.0002
     12 C         142.7402  137.5920  158.8758 C.ar    1  UNL1        0.0042
     13 C         142.3062  139.0188  159.0366 C.ar    1  UNL1        0.0375
     14 C         142.3165  136.8565  157.6390 C.ar    1  UNL1        0.0138
     15 C         143.0930  135.7592  158.3046 C.ar    1  UNL1        0.0012
     16 C         143.2144  134.4185  157.6430 C.ar    1  UNL1        0.0001
     17 C         142.5592  134.1750  156.3159 C.ar    1  UNL1        0.0013
     18 C         141.7827  135.2722  155.6502 C.ar    1  UNL1        0.0149
     19 C         141.6613  136.6130  156.3119 C.ar    1  UNL1        0.0538
     20 N         140.8631  136.8944  155.0735 N.am    1  UNL1       -0.2575
     21 C         140.4131  136.2046  153.8197 C.3     1  UNL1        0.1001
     22 C         139.6046  137.1812  153.0181 C.3     1  UNL1        0.0470
     23 C         139.2736  138.8142  153.4974 C.3     1  UNL1        0.1340
     24 N         138.6969  140.1933  153.3727 N.3     1  UNL1       -0.2863
     25 C         138.3776  141.6138  153.7336 C.3     1  UNL1        0.1151
     26 C         138.3587  142.8838  154.5317 C.ar    1  UNL1        0.0739
     27 C         137.5237  143.6071  153.5170 C.ar    1  UNL1        0.1147
     28 N         137.2918  145.0021  154.0171 N.ar    1  UNL1       -0.2226
     29 C         137.9834  145.1409  155.3408 C.ar    1  UNL1        0.1786
     30 N         138.6429  143.8317  155.6589 N.ar    1  UNL1       -0.3070
     31 C         139.1916  144.3297  156.9631 C.3     1  UNL1        0.1341
     32 C         140.0296  137.6628  154.0910 C.2     1  UNL1        0.2437
     33 O         140.0252  136.9996  153.6488 O.2     1  UNL1       -0.2731
     34 H         137.7303  139.8950  153.2418 H       1  UNL1        0.1240
     35 N         143.1295  143.8778  163.6857 N.1     1  UNL1       -0.1907
     36 C         142.3786  143.9409  162.3887 C.1     1  UNL1        0.1035
@<TRIPOS>BOND
     1    35    36    3
     2    36     1    1
     3     1     2   ar
     4     2     3   ar
     5     3     4   ar
     6     4     5   ar
     7     5     6   ar
     8     6     7    1
     9     7     8    1
    10     8     9   ar
    11     9    10   ar
    12    10    11   ar
    13    11    12   ar
    14    12    13   ar
    15    12    14    1
    16    14    15   ar
    17    15    16   ar
    18    16    17   ar
    19    17    18   ar
    20    18    19   ar
    21    19    20    1
    22    20    21    1
    23    21    22    1
    24    23    22    1
    25    23    24    1
    26    24    25    1
    27    25    26    1
    28    26    27   ar
    29    27    28   ar
    30    28    29   ar
    31    29    30   ar
    32    30    31    1
    33    23    32    1
    34    32    33    2
    35     6     1   ar
    36    13     8   ar
    37    19    14   ar
    38    32    20   am
    39    31     4    1
    40    30    26   ar
    41    24    34    1
