@<TRIPOS>MOLECULE
*****
 33 37 0 0 0
SMALL
GASTEIGER

@<TRIPOS>ATOM
      1 C         139.0861  141.7162  163.3082 C.ar    1  UNL1        0.0327
      2 C         137.8375  142.3877  162.8183 C.ar    1  UNL1        0.1001
      3 N         137.7648  142.9007  161.4106 N.ar    1  UNL1       -0.2420
      4 C         138.9406  142.7422  160.4929 C.ar    1  UNL1        0.1078
      5 C         140.1892  142.0707  160.9828 C.ar    1  UNL1        0.1207
      6 C         140.2620  141.5577  162.3904 C.ar    1  UNL1        0.0583
      7 C         141.3651  141.9122  160.0650 C.2     1  UNL1        0.3780
      8 N         142.5394  142.8404  159.9683 N.2     1  UNL1       -0.0307
      9 C         143.4732  142.2996  158.9264 C.2     1  UNL1        0.2329
     10 C         144.7901  142.7936  158.4052 C.2     1  UNL1        0.0612
     11 C         145.5098  142.0251  157.3369 C.2     1  UNL1        0.0577
     12 CL        146.8268  142.5190  156.8156 Cl      1  UNL1       -0.0824
     13 C         144.9125  140.7626  156.7897 C.2     1  UNL1       -0.0058
     14 C         143.5956  140.2686  157.3108 C.3     1  UNL1        0.1046
     15 C         142.8760  141.0371  158.3792 C.2     1  UNL1        0.2178
     16 N         141.5731  140.7977  159.0829 N.2     1  UNL1       -0.0346
     17 N         141.5106  140.8862  162.8804 N.pl3   1  UNL1       -0.3071
     18 C         141.6344  139.3928  162.8144 C.3     1  UNL1        0.0921
     19 C         142.8829  138.7213  163.3044 C.3     1  UNL1        0.0369
     20 C         144.0079  139.5432  163.8603 C.3     1  UNL1        0.0542
     21 N         145.2564  138.8717  164.3503 N.3     1  UNL1       -0.3221
     22 C         143.8842  141.0366  163.9263 C.3     1  UNL1        0.0369
     23 C         142.6355  141.7081  163.4363 C.3     1  UNL1        0.0921
     24 H         145.1689  137.8625  164.2311 H       1  UNL1        0.1188
     25 H         145.3931  139.0869  165.3379 H       1  UNL1        0.1188
     26 C         140.8799  142.1433  168.1662 C.3     1  UNL1        0.0310
     27 C         140.0558  141.4168  167.1448 C.ar    1  UNL1       -0.0222
     28 C         139.3046  140.1772  167.5312 C.ar    1  UNL1       -0.0085
     29 C         138.4805  139.4507  166.5099 C.ar    1  UNL1       -0.0222
     30 C         137.7293  138.2113  166.8963 C.3     1  UNL1        0.0310
     31 C         138.4077  139.9637  165.1022 C.ar    1  UNL1       -0.0042
     32 C         139.1589  141.2032  164.7159 C.ar    1  UNL1        0.0021
     33 C         139.9830  141.9297  165.7372 C.ar    1  UNL1       -0.0042
@<TRIPOS>BOND
     1    26    27    1
     2    27    28   ar
     3    28    29   ar
     4    29    30    1
     5    29    31   ar
     6    31    32   ar
     7    32     1    1
     8     1     2   ar
     9     2     3   ar
    10     3     4   ar
    11     4     5   ar
    12     5     7    1
    13     7     8    2
    14     8     9    1
    15     9    10    2
    16    10    11    1
    17    11    12    1
    18    11    13    2
    19    13    14    1
    20    14    15    1
    21    15    16    2
    22     5     6   ar
    23     6    17    1
    24    17    18    1
    25    18    19    1
    26    19    20    1
    27    20    21    1
    28    20    22    1
    29    22    23    1
    30    32    33   ar
    31    33    27   ar
    32     6     1   ar
    33    23    17    1
    34    16     7    1
    35    15     9    1
    36    21    24    1
    37    21    25    1
@<TRIPOS>MOLECULE
*****
 33 37 0 0 0
SMALL
GASTEIGER

@<TRIPOS>ATOM
      1 C         139.0886  141.7176  163.3073 C.ar    1  UNL1        0.0327
      2 C         137.8395  142.3887  162.8181 C.ar    1  UNL1        0.1001
      3 N         137.7659  142.9018  161.4106 N.ar    1  UNL1       -0.2420
      4 C         138.9413  142.7437  160.4922 C.ar    1  UNL1        0.1078
      5 C         140.1904  142.0726  160.9814 C.ar    1  UNL1        0.1207
      6 C         140.2640  141.5596  162.3890 C.ar    1  UNL1        0.0583
      7 C         141.3658  141.9145  160.0630 C.2     1  UNL1        0.3780
      8 N         142.5430  142.8396  159.9704 N.2     1  UNL1       -0.0307
      9 C         143.4751  142.3004  158.9261 C.2     1  UNL1        0.2329
     10 C         144.7936  142.7927  158.4072 C.2     1  UNL1        0.0612
     11 C         145.5110  142.0267  157.3355 C.2     1  UNL1        0.0577
     12 CL        146.8295  142.5189  156.8165 Cl      1  UNL1       -0.0824
     13 C         144.9099  140.7684  156.7828 C.2     1  UNL1       -0.0058
     14 C         143.5914  140.2762  157.3017 C.3     1  UNL1        0.1046
     15 C         142.8741  141.0422  158.3734 C.2     1  UNL1        0.2178
     16 N         141.5704  140.8037  159.0760 N.2     1  UNL1       -0.0346
     17 N         141.5132  140.8884  162.8783 N.pl3   1  UNL1       -0.3071
     18 C         142.6369  141.7105  163.4362 C.3     1  UNL1        0.0921
     19 C         143.8860  141.0395  163.9255 C.3     1  UNL1        0.0369
     20 C         144.0114  139.5462  163.8568 C.3     1  UNL1        0.0542
     21 N         145.2605  138.8752  164.3460 N.3     1  UNL1       -0.3221
     22 C         142.8876  138.7242  163.2988 C.3     1  UNL1        0.0369
     23 C         141.6385  139.3953  162.8095 C.3     1  UNL1        0.0921
     24 H         145.9131  139.5801  164.6889 H       1  UNL1        0.1188
     25 H         145.6908  138.3575  163.5797 H       1  UNL1        0.1188
     26 C         137.7347  138.2120  166.8958 C.3     1  UNL1        0.0310
     27 C         138.4853  139.4517  166.5092 C.ar    1  UNL1       -0.0222
     28 C         139.3097  140.1784  167.5302 C.ar    1  UNL1       -0.0085
     29 C         140.0604  141.4182  167.1436 C.ar    1  UNL1       -0.0222
     30 C         140.8848  142.1448  168.1645 C.3     1  UNL1        0.0310
     31 C         139.9867  141.9312  165.7359 C.ar    1  UNL1       -0.0042
     32 C         139.1623  141.2046  164.7150 C.ar    1  UNL1        0.0021
     33 C         138.4117  139.9648  165.1016 C.ar    1  UNL1       -0.0042
@<TRIPOS>BOND
     1    26    27    1
     2    27    28   ar
     3    28    29   ar
     4    29    30    1
     5    29    31   ar
     6    31    32   ar
     7    32     1    1
     8     1     2   ar
     9     2     3   ar
    10     3     4   ar
    11     4     5   ar
    12     5     7    1
    13     7     8    2
    14     8     9    1
    15     9    10    2
    16    10    11    1
    17    11    12    1
    18    11    13    2
    19    13    14    1
    20    14    15    1
    21    15    16    2
    22     5     6   ar
    23     6    17    1
    24    17    18    1
    25    18    19    1
    26    19    20    1
    27    20    21    1
    28    20    22    1
    29    22    23    1
    30    32    33   ar
    31    33    27   ar
    32     6     1   ar
    33    23    17    1
    34    16     7    1
    35    15     9    1
    36    21    24    1
    37    21    25    1
@<TRIPOS>MOLECULE
*****
 33 37 0 0 0
SMALL
GASTEIGER

@<TRIPOS>ATOM
      1 C         141.9397  140.0317  167.0792 C.ar    1  UNL1        0.0327
      2 C         142.9709  139.0181  167.4783 C.ar    1  UNL1        0.1001
      3 N         143.8393  138.3808  166.4345 N.ar    1  UNL1       -0.2420
      4 C         143.6767  138.7571  164.9916 C.ar    1  UNL1        0.1078
      5 C         142.6455  139.7706  164.5925 C.ar    1  UNL1        0.1207
      6 C         141.7770  140.4079  165.6363 C.ar    1  UNL1        0.0583
      7 C         142.4828  140.1469  163.1496 C.2     1  UNL1        0.3780
      8 N         143.3266  141.1305  162.3943 N.2     1  UNL1       -0.0307
      9 C         142.8130  141.1971  160.9866 C.2     1  UNL1        0.2329
     10 C         143.2528  141.9942  159.7944 C.2     1  UNL1        0.0612
     11 C         142.5312  141.8488  158.4875 C.2     1  UNL1        0.0577
     12 CL        142.9710  142.6459  157.2952 Cl      1  UNL1       -0.0824
     13 C         141.3700  140.9063  158.3726 C.2     1  UNL1       -0.0058
     14 C         140.9303  140.1092  159.5648 C.3     1  UNL1        0.1046
     15 C         141.6518  140.2546  160.8717 C.2     1  UNL1        0.2178
     16 N         141.4477  139.6056  162.2086 N.2     1  UNL1       -0.0346
     17 N         140.7457  141.4215  165.2372 N.pl3   1  UNL1       -0.3071
     18 C         139.3295  140.9933  164.9904 C.3     1  UNL1        0.0921
     19 C         138.2982  142.0068  164.5914 C.3     1  UNL1        0.0369
     20 C         138.6832  143.4486  164.4390 C.3     1  UNL1        0.0542
     21 N         137.6520  144.4621  164.0400 N.3     1  UNL1       -0.3221
     22 C         140.0995  143.8768  164.6858 C.3     1  UNL1        0.0369
     23 C         141.1307  142.8632  165.0849 C.3     1  UNL1        0.0921
     24 H         136.7515  143.9997  163.9146 H       1  UNL1        0.1188
     25 H         137.9315  144.9051  163.1647 H       1  UNL1        0.1188
     26 C         140.7403  144.1224  170.0502 C.3     1  UNL1        0.0310
     27 C         140.4714  142.7144  169.6085 C.ar    1  UNL1       -0.0222
     28 C         139.3340  141.9437  170.2105 C.ar    1  UNL1       -0.0085
     29 C         139.0652  140.5357  169.7688 C.ar    1  UNL1       -0.0222
     30 C         137.9279  139.7650  170.3708 C.3     1  UNL1        0.0310
     31 C         139.9338  139.8983  168.7250 C.ar    1  UNL1       -0.0042
     32 C         141.0711  140.6690  168.1230 C.ar    1  UNL1        0.0021
     33 C         141.3399  142.0771  168.5647 C.ar    1  UNL1       -0.0042
@<TRIPOS>BOND
     1    26    27    1
     2    27    28   ar
     3    28    29   ar
     4    29    30    1
     5    29    31   ar
     6    31    32   ar
     7    32     1    1
     8     1     2   ar
     9     2     3   ar
    10     3     4   ar
    11     4     5   ar
    12     5     7    1
    13     7     8    2
    14     8     9    1
    15     9    10    2
    16    10    11    1
    17    11    12    1
    18    11    13    2
    19    13    14    1
    20    14    15    1
    21    15    16    2
    22     5     6   ar
    23     6    17    1
    24    17    18    1
    25    18    19    1
    26    19    20    1
    27    20    21    1
    28    20    22    1
    29    22    23    1
    30    32    33   ar
    31    33    27   ar
    32     6     1   ar
    33    23    17    1
    34    16     7    1
    35    15     9    1
    36    21    24    1
    37    21    25    1
@<TRIPOS>MOLECULE
*****
 33 37 0 0 0
SMALL
GASTEIGER

@<TRIPOS>ATOM
      1 C         139.5677  142.3657  161.6874 C.ar    1  UNL1        0.0327
      2 C         138.0713  142.4475  161.6245 C.ar    1  UNL1        0.1001
      3 N         137.2609  142.3393  162.8820 N.ar    1  UNL1       -0.2420
      4 C         137.9468  142.1492  164.2024 C.ar    1  UNL1        0.1078
      5 C         139.4432  142.0674  164.2653 C.ar    1  UNL1        0.1207
      6 C         140.2537  142.1756  163.0077 C.ar    1  UNL1        0.0583
      7 C         140.1291  141.8773  165.5856 C.2     1  UNL1        0.3780
      8 N         140.6896  140.5888  166.1106 N.2     1  UNL1       -0.0307
      9 C         141.2819  140.8575  167.4623 C.2     1  UNL1        0.2329
     10 C         141.9732  139.9655  168.4505 C.2     1  UNL1        0.0612
     11 C         142.4700  140.5282  169.7491 C.2     1  UNL1        0.0577
     12 CL        143.1613  139.6363  170.7374 Cl      1  UNL1       -0.0824
     13 C         142.2755  141.9828  170.0596 C.2     1  UNL1       -0.0058
     14 C         141.5843  142.8747  169.0713 C.3     1  UNL1        0.1046
     15 C         141.0875  142.3120  167.7727 C.2     1  UNL1        0.2178
     16 N         140.3750  142.9423  166.6129 N.2     1  UNL1       -0.0346
     17 N         141.7502  142.0938  163.0706 N.pl3   1  UNL1       -0.3071
     18 C         142.5634  143.3435  163.2349 C.3     1  UNL1        0.0921
     19 C         144.0598  143.2617  163.2977 C.3     1  UNL1        0.0369
     20 C         144.7431  141.9302  163.1962 C.3     1  UNL1        0.0542
     21 N         146.2395  141.8484  163.2590 N.3     1  UNL1       -0.3221
     22 C         143.9299  140.6805  163.0318 C.3     1  UNL1        0.0369
     23 C         142.4334  140.7623  162.9690 C.3     1  UNL1        0.0921
     24 H         146.6268  142.7853  163.3717 H       1  UNL1        0.1188
     25 H         146.5940  141.4355  162.3963 H       1  UNL1        0.1188
     26 C         142.1051  140.0991  157.7600 C.3     1  UNL1        0.0310
     27 C         141.6470  141.3407  158.4662 C.ar    1  UNL1       -0.0222
     28 C         141.9994  142.6905  157.9148 C.ar    1  UNL1       -0.0085
     29 C         141.5413  143.9320  158.6210 C.ar    1  UNL1       -0.0222
     30 C         141.8937  145.2817  158.0697 C.3     1  UNL1        0.0310
     31 C         140.7307  143.8237  159.8786 C.ar    1  UNL1       -0.0042
     32 C         140.3783  142.4740  160.4298 C.ar    1  UNL1        0.0021
     33 C         140.8364  141.2324  159.7236 C.ar    1  UNL1       -0.0042
@<TRIPOS>BOND
     1    26    27    1
     2    27    28   ar
     3    28    29   ar
     4    29    30    1
     5    29    31   ar
     6    31    32   ar
     7    32     1    1
     8     1     2   ar
     9     2     3   ar
    10     3     4   ar
    11     4     5   ar
    12     5     7    1
    13     7     8    2
    14     8     9    1
    15     9    10    2
    16    10    11    1
    17    11    12    1
    18    11    13    2
    19    13    14    1
    20    14    15    1
    21    15    16    2
    22     5     6   ar
    23     6    17    1
    24    17    18    1
    25    18    19    1
    26    19    20    1
    27    20    21    1
    28    20    22    1
    29    22    23    1
    30    32    33   ar
    31    33    27   ar
    32     6     1   ar
    33    23    17    1
    34    16     7    1
    35    15     9    1
    36    21    24    1
    37    21    25    1
@<TRIPOS>MOLECULE
*****
 33 37 0 0 0
SMALL
GASTEIGER

@<TRIPOS>ATOM
      1 C         142.4414  142.5329  166.1652 C.ar    1  UNL1        0.0327
      2 C         143.8181  142.9003  166.6337 C.ar    1  UNL1        0.1001
      3 N         144.7830  143.5521  165.6882 N.ar    1  UNL1       -0.2420
      4 C         144.3712  143.8365  164.2741 C.ar    1  UNL1        0.1078
      5 C         142.9944  143.4691  163.8056 C.ar    1  UNL1        0.1207
      6 C         142.0295  142.8173  164.7511 C.ar    1  UNL1        0.0583
      7 C         142.5826  143.7536  162.3916 C.2     1  UNL1        0.3780
      8 N         141.5589  144.7601  161.9569 N.2     1  UNL1       -0.0307
      9 C         141.4658  144.7101  160.4606 C.2     1  UNL1        0.2329
     10 C         140.6260  145.4752  159.4811 C.2     1  UNL1        0.0612
     11 C         140.7524  145.2027  158.0115 C.2     1  UNL1        0.0577
     12 CL        139.9127  145.9678  157.0319 Cl      1  UNL1       -0.0824
     13 C         141.7185  144.1652  157.5214 C.2     1  UNL1       -0.0058
     14 C         142.5583  143.4001  158.5010 C.3     1  UNL1        0.1046
     15 C         142.4319  143.6725  159.9705 C.2     1  UNL1        0.2178
     16 N         143.1221  143.0814  161.1639 N.2     1  UNL1       -0.0346
     17 N         140.6527  142.4499  164.2827 N.pl3   1  UNL1       -0.3071
     18 C         139.4908  143.3465  164.5929 C.3     1  UNL1        0.0921
     19 C         138.1140  142.9791  164.1245 C.3     1  UNL1        0.0369
     20 C         137.8991  141.7152  163.3457 C.3     1  UNL1        0.0542
     21 N         136.5223  141.3478  162.8773 N.3     1  UNL1       -0.3221
     22 C         139.0610  140.8187  163.0355 C.3     1  UNL1        0.0369
     23 C         140.4378  141.1861  163.5040 C.3     1  UNL1        0.0921
     24 H         135.8597  142.0642  163.1742 H       1  UNL1        0.1188
     25 H         136.2547  140.4495  163.2796 H       1  UNL1        0.1188
     26 C         140.3893  142.1131  170.9205 C.3     1  UNL1        0.0310
     27 C         140.4504  141.6712  169.4884 C.ar    1  UNL1       -0.0222
     28 C         139.5465  140.5774  169.0018 C.ar    1  UNL1       -0.0085
     29 C         139.6075  140.1355  167.5696 C.ar    1  UNL1       -0.0222
     30 C         138.7036  139.0419  167.0830 C.3     1  UNL1        0.0310
     31 C         140.5725  140.7874  166.6241 C.ar    1  UNL1       -0.0042
     32 C         141.4764  141.8811  167.1107 C.ar    1  UNL1        0.0021
     33 C         141.4153  142.3230  168.5428 C.ar    1  UNL1       -0.0042
@<TRIPOS>BOND
     1    26    27    1
     2    27    28   ar
     3    28    29   ar
     4    29    30    1
     5    29    31   ar
     6    31    32   ar
     7    32     1    1
     8     1     2   ar
     9     2     3   ar
    10     3     4   ar
    11     4     5   ar
    12     5     7    1
    13     7     8    2
    14     8     9    1
    15     9    10    2
    16    10    11    1
    17    11    12    1
    18    11    13    2
    19    13    14    1
    20    14    15    1
    21    15    16    2
    22     5     6   ar
    23     6    17    1
    24    17    18    1
    25    18    19    1
    26    19    20    1
    27    20    21    1
    28    20    22    1
    29    22    23    1
    30    32    33   ar
    31    33    27   ar
    32     6     1   ar
    33    23    17    1
    34    16     7    1
    35    15     9    1
    36    21    24    1
    37    21    25    1
@<TRIPOS>MOLECULE
*****
 33 37 0 0 0
SMALL
GASTEIGER

@<TRIPOS>ATOM
      1 C         139.9696  139.7616  161.5862 C.ar    1  UNL1        0.0327
      2 C         138.5316  139.3351  161.5703 C.ar    1  UNL1        0.1001
      3 N         137.7611  139.2474  162.8543 N.ar    1  UNL1       -0.2420
      4 C         138.4286  139.5863  164.1542 C.ar    1  UNL1        0.1078
      5 C         139.8665  140.0128  164.1701 C.ar    1  UNL1        0.1207
      6 C         140.6370  140.1005  162.8861 C.ar    1  UNL1        0.0583
      7 C         140.5340  140.3517  165.4699 C.2     1  UNL1        0.3780
      8 N         140.6061  141.7132  166.0954 N.2     1  UNL1       -0.0307
      9 C         141.3632  141.5916  167.3846 C.2     1  UNL1        0.2329
     10 C         141.7433  142.6034  168.4246 C.2     1  UNL1        0.0612
     11 C         142.5193  142.1785  169.6360 C.2     1  UNL1        0.0577
     12 CL        142.8994  143.1903  170.6761 Cl      1  UNL1       -0.0824
     13 C         142.9151  140.7419  169.8072 C.2     1  UNL1       -0.0058
     14 C         142.5351  139.7301  168.7672 C.3     1  UNL1        0.1046
     15 C         141.7591  140.1549  167.5559 C.2     1  UNL1        0.2178
     16 N         141.2466  139.3887  166.3725 N.2     1  UNL1       -0.0346
     17 N         142.0751  140.5270  162.9019 N.pl3   1  UNL1       -0.3071
     18 C         143.1612  139.4984  163.0127 C.3     1  UNL1        0.0921
     19 C         144.5992  139.9249  163.0286 C.3     1  UNL1        0.0369
     20 C         144.9511  141.3800  162.9336 C.3     1  UNL1        0.0542
     21 N         146.3891  141.8065  162.9495 N.3     1  UNL1       -0.3221
     22 C         143.8649  142.4086  162.8229 C.3     1  UNL1        0.0369
     23 C         142.4269  141.9820  162.8070 C.3     1  UNL1        0.0921
     24 H         146.9868  140.9838  163.0292 H       1  UNL1        0.1188
     25 H         146.5520  142.4235  163.7452 H       1  UNL1        0.1188
     26 C         142.7503  137.4713  157.8416 C.3     1  UNL1        0.0310
     27 C         142.1305  138.7041  158.4300 C.ar    1  UNL1       -0.0222
     28 C         142.2812  140.0245  157.7343 C.ar    1  UNL1       -0.0085
     29 C         141.6614  141.2572  158.3226 C.ar    1  UNL1       -0.0222
     30 C         141.8121  142.5776  157.6270 C.3     1  UNL1        0.0310
     31 C         140.8908  141.1696  159.6066 C.ar    1  UNL1       -0.0042
     32 C         140.7401  139.8492  160.3022 C.ar    1  UNL1        0.0021
     33 C         141.3600  138.6165  159.7139 C.ar    1  UNL1       -0.0042
@<TRIPOS>BOND
     1    26    27    1
     2    27    28   ar
     3    28    29   ar
     4    29    30    1
     5    29    31   ar
     6    31    32   ar
     7    32     1    1
     8     1     2   ar
     9     2     3   ar
    10     3     4   ar
    11     4     5   ar
    12     5     7    1
    13     7     8    2
    14     8     9    1
    15     9    10    2
    16    10    11    1
    17    11    12    1
    18    11    13    2
    19    13    14    1
    20    14    15    1
    21    15    16    2
    22     5     6   ar
    23     6    17    1
    24    17    18    1
    25    18    19    1
    26    19    20    1
    27    20    21    1
    28    20    22    1
    29    22    23    1
    30    32    33   ar
    31    33    27   ar
    32     6     1   ar
    33    23    17    1
    34    16     7    1
    35    15     9    1
    36    21    24    1
    37    21    25    1
@<TRIPOS>MOLECULE
*****
 33 37 0 0 0
SMALL
GASTEIGER

@<TRIPOS>ATOM
      1 C         139.7580  139.9291  167.0426 C.ar    1  UNL1        0.0327
      2 C         138.5016  139.1591  167.3229 C.ar    1  UNL1        0.1001
      3 N         137.7791  138.4696  166.2037 N.ar    1  UNL1       -0.2420
      4 C         138.3130  138.5502  164.8042 C.ar    1  UNL1        0.1078
      5 C         139.5693  139.3203  164.5239 C.ar    1  UNL1        0.1207
      6 C         140.2918  140.0097  165.6431 C.ar    1  UNL1        0.0583
      7 C         140.1032  139.4008  163.1245 C.2     1  UNL1        0.3780
      8 N         140.9400  138.3618  162.4388 N.2     1  UNL1       -0.0307
      9 C         141.2479  138.8534  161.0555 C.2     1  UNL1        0.2329
     10 C         142.0335  138.2517  159.9282 C.2     1  UNL1        0.0612
     11 C         142.1725  138.9930  158.6316 C.2     1  UNL1        0.0577
     12 CL        142.9581  138.3913  157.5042 Cl      1  UNL1       -0.0824
     13 C         141.5260  140.3359  158.4623 C.2     1  UNL1       -0.0058
     14 C         140.7405  140.9375  159.5896 C.3     1  UNL1        0.1046
     15 C         140.6014  140.1963  160.8862 C.2     1  UNL1        0.2178
     16 N         139.8939  140.5346  162.1649 N.2     1  UNL1       -0.0346
     17 N         141.5482  140.7798  165.3629 N.pl3   1  UNL1       -0.3071
     18 C         141.4852  142.2614  165.1376 C.3     1  UNL1        0.0921
     19 C         142.7415  143.0315  164.8574 C.3     1  UNL1        0.0369
     20 C         144.0609  142.3200  164.8024 C.3     1  UNL1        0.0542
     21 N         145.3173  143.0901  164.5221 N.3     1  UNL1       -0.3221
     22 C         144.1239  140.8383  165.0276 C.3     1  UNL1        0.0369
     23 C         142.8675  140.0682  165.3079 C.3     1  UNL1        0.0921
     24 H         145.0904  144.0764  164.3956 H       1  UNL1        0.1188
     25 H         145.7545  142.7302  163.6737 H       1  UNL1        0.1188
     26 C         140.5415  144.1530  169.9657 C.3     1  UNL1        0.0310
     27 C         140.8723  142.7306  169.6233 C.ar    1  UNL1       -0.0222
     28 C         141.9256  141.9976  170.4001 C.ar    1  UNL1       -0.0085
     29 C         142.2564  140.5752  170.0578 C.ar    1  UNL1       -0.0222
     30 C         143.3096  139.8423  170.8345 C.3     1  UNL1        0.0310
     31 C         141.5338  139.8857  168.9385 C.ar    1  UNL1       -0.0042
     32 C         140.4805  140.6186  168.1618 C.ar    1  UNL1        0.0021
     33 C         140.1498  142.0411  168.5042 C.ar    1  UNL1       -0.0042
@<TRIPOS>BOND
     1    26    27    1
     2    27    28   ar
     3    28    29   ar
     4    29    30    1
     5    29    31   ar
     6    31    32   ar
     7    32     1    1
     8     1     2   ar
     9     2     3   ar
    10     3     4   ar
    11     4     5   ar
    12     5     7    1
    13     7     8    2
    14     8     9    1
    15     9    10    2
    16    10    11    1
    17    11    12    1
    18    11    13    2
    19    13    14    1
    20    14    15    1
    21    15    16    2
    22     5     6   ar
    23     6    17    1
    24    17    18    1
    25    18    19    1
    26    19    20    1
    27    20    21    1
    28    20    22    1
    29    22    23    1
    30    32    33   ar
    31    33    27   ar
    32     6     1   ar
    33    23    17    1
    34    16     7    1
    35    15     9    1
    36    21    24    1
    37    21    25    1
@<TRIPOS>MOLECULE
*****
 33 37 0 0 0
SMALL
GASTEIGER

@<TRIPOS>ATOM
      1 C         139.9704  141.8891  160.9682 C.ar    1  UNL1        0.0327
      2 C         138.6928  142.5329  160.5174 C.ar    1  UNL1        0.1001
      3 N         137.6910  143.0014  161.5307 N.ar    1  UNL1       -0.2420
      4 C         137.9667  142.8262  162.9947 C.ar    1  UNL1        0.1078
      5 C         139.2444  142.1824  163.4454 C.ar    1  UNL1        0.1207
      6 C         140.2462  141.7139  162.4322 C.ar    1  UNL1        0.0583
      7 C         139.5201  142.0072  164.9094 C.2     1  UNL1        0.3780
      8 N         139.3198  140.7482  165.6998 N.2     1  UNL1       -0.0307
      9 C         139.7205  141.0231  167.1189 C.2     1  UNL1        0.2329
     10 C         139.7353  140.1569  168.3434 C.2     1  UNL1        0.0612
     11 C         140.1981  140.7197  169.6546 C.2     1  UNL1        0.0577
     12 CL        140.2129  139.8535  170.8792 Cl      1  UNL1       -0.0824
     13 C         140.6461  142.1486  169.7412 C.2     1  UNL1       -0.0058
     14 C         140.6313  143.0148  168.5167 C.3     1  UNL1        0.1046
     15 C         140.1685  142.4520  167.2056 C.2     1  UNL1        0.2178
     16 N         140.0447  143.0602  165.8400 N.2     1  UNL1       -0.0346
     17 N         141.5239  141.0700  162.8829 N.pl3   1  UNL1       -0.3071
     18 C         141.5952  139.5811  163.0499 C.3     1  UNL1        0.0921
     19 C         142.8728  138.9372  163.5006 C.3     1  UNL1        0.0369
     20 C         144.0792  139.7824  163.7843 C.3     1  UNL1        0.0542
     21 N         145.3568  139.1385  164.2350 N.3     1  UNL1       -0.3221
     22 C         144.0079  141.2713  163.6173 C.3     1  UNL1        0.0369
     23 C         142.7302  141.9152  163.1666 C.3     1  UNL1        0.0921
     24 H         145.2262  138.1286  164.2939 H       1  UNL1        0.1188
     25 H         145.6156  139.5020  165.1522 H       1  UNL1        0.1188
     26 C         144.1690  142.7886  158.0419 C.3     1  UNL1        0.0310
     27 C         143.0716  141.8703  158.4918 C.ar    1  UNL1       -0.0222
     28 C         142.9762  140.4833  157.9284 C.ar    1  UNL1       -0.0085
     29 C         141.8788  139.5650  158.3783 C.ar    1  UNL1       -0.0222
     30 C         141.7833  138.1781  157.8150 C.3     1  UNL1        0.0310
     31 C         140.8769  140.0336  159.3916 C.ar    1  UNL1       -0.0042
     32 C         140.9724  141.4205  159.9549 C.ar    1  UNL1        0.0021
     33 C         142.0697  142.3388  159.5050 C.ar    1  UNL1       -0.0042
@<TRIPOS>BOND
     1    26    27    1
     2    27    28   ar
     3    28    29   ar
     4    29    30    1
     5    29    31   ar
     6    31    32   ar
     7    32     1    1
     8     1     2   ar
     9     2     3   ar
    10     3     4   ar
    11     4     5   ar
    12     5     7    1
    13     7     8    2
    14     8     9    1
    15     9    10    2
    16    10    11    1
    17    11    12    1
    18    11    13    2
    19    13    14    1
    20    14    15    1
    21    15    16    2
    22     5     6   ar
    23     6    17    1
    24    17    18    1
    25    18    19    1
    26    19    20    1
    27    20    21    1
    28    20    22    1
    29    22    23    1
    30    32    33   ar
    31    33    27   ar
    32     6     1   ar
    33    23    17    1
    34    16     7    1
    35    15     9    1
    36    21    24    1
    37    21    25    1
@<TRIPOS>MOLECULE
*****
 33 37 0 0 0
SMALL
GASTEIGER

@<TRIPOS>ATOM
      1 C         142.6529  140.3889  164.7850 C.ar    1  UNL1        0.0327
      2 C         143.8881  139.5563  164.9613 C.ar    1  UNL1        0.1001
      3 N         144.8216  139.3455  163.8063 N.ar    1  UNL1       -0.2420
      4 C         144.5199  139.9672  162.4750 C.ar    1  UNL1        0.1078
      5 C         143.2847  140.7997  162.2986 C.ar    1  UNL1        0.1207
      6 C         142.3512  141.0105  163.4536 C.ar    1  UNL1        0.0583
      7 C         142.9830  141.4214  160.9673 C.2     1  UNL1        0.3780
      8 N         143.1684  142.8654  160.6062 N.2     1  UNL1       -0.0307
      9 C         142.7430  143.0447  159.1790 C.2     1  UNL1        0.2329
     10 C         142.7058  144.2497  158.2865 C.2     1  UNL1        0.0612
     11 C         142.2204  144.1214  156.8731 C.2     1  UNL1        0.0577
     12 CL        142.1833  145.3265  155.9805 Cl      1  UNL1       -0.0824
     13 C         141.7721  142.7882  156.3521 C.2     1  UNL1       -0.0058
     14 C         141.8092  141.5832  157.2445 C.3     1  UNL1        0.1046
     15 C         142.2946  141.7114  158.6580 C.2     1  UNL1        0.2178
     16 N         142.4430  140.7082  159.7632 N.2     1  UNL1       -0.0346
     17 N         141.1159  141.8431  163.2773 N.pl3   1  UNL1       -0.3071
     18 C         139.8604  141.2187  162.7446 C.3     1  UNL1        0.0921
     19 C         138.6252  142.0512  162.5683 C.3     1  UNL1        0.0369
     20 C         138.6454  143.5081  162.9246 C.3     1  UNL1        0.0542
     21 N         137.4102  144.3406  162.7483 N.3     1  UNL1       -0.3221
     22 C         139.9010  144.1326  163.4572 C.3     1  UNL1        0.0369
     23 C         141.1363  143.3000  163.6336 C.3     1  UNL1        0.0921
     24 H         136.6580  143.7589  162.3793 H       1  UNL1        0.1188
     25 H         137.6029  145.1011  162.0964 H       1  UNL1        0.1188
     26 C         138.3083  139.1374  167.3460 C.3     1  UNL1        0.0310
     27 C         139.5470  139.9740  167.2204 C.ar    1  UNL1       -0.0222
     28 C         139.8521  141.0215  168.2499 C.ar    1  UNL1       -0.0085
     29 C         141.0908  141.8581  168.1244 C.ar    1  UNL1       -0.0222
     30 C         141.3959  142.9055  169.1538 C.3     1  UNL1        0.0310
     31 C         142.0244  141.6472  166.9694 C.ar    1  UNL1       -0.0042
     32 C         141.7193  140.5998  165.9400 C.ar    1  UNL1        0.0021
     33 C         140.4806  139.7632  166.0655 C.ar    1  UNL1       -0.0042
@<TRIPOS>BOND
     1    26    27    1
     2    27    28   ar
     3    28    29   ar
     4    29    30    1
     5    29    31   ar
     6    31    32   ar
     7    32     1    1
     8     1     2   ar
     9     2     3   ar
    10     3     4   ar
    11     4     5   ar
    12     5     7    1
    13     7     8    2
    14     8     9    1
    15     9    10    2
    16    10    11    1
    17    11    12    1
    18    11    13    2
    19    13    14    1
    20    14    15    1
    21    15    16    2
    22     5     6   ar
    23     6    17    1
    24    17    18    1
    25    18    19    1
    26    19    20    1
    27    20    21    1
    28    20    22    1
    29    22    23    1
    30    32    33   ar
    31    33    27   ar
    32     6     1   ar
    33    23    17    1
    34    16     7    1
    35    15     9    1
    36    21    24    1
    37    21    25    1
