@<TRIPOS>MOLECULE
*****
 31 35 0 0 0
SMALL
GASTEIGER

@<TRIPOS>ATOM
      1 C         142.2051  143.6973  163.3495 C.ar    1  UNL1        0.0291
      2 C         141.4307  142.7923  164.2612 C.ar    1  UNL1        0.0053
      3 C         141.9654  142.4643  165.6237 C.ar    1  UNL1        0.0352
      4 C         143.2746  143.0412  166.0744 C.ar    1  UNL1        0.0850
      5 C         144.0490  143.9462  165.1627 C.ar    1  UNL1        0.0488
      6 C         143.5142  144.2743  163.8003 C.ar    1  UNL1        0.1416
      7 F         144.2886  145.1793  162.8885 F       1  UNL1       -0.2041
      8 N         143.8093  142.7131  167.4370 N.ar    1  UNL1       -0.2422
      9 C         143.0349  141.8081  168.3487 C.ar    1  UNL1        0.1175
     10 C         141.7258  141.2312  167.8979 C.ar    1  UNL1        0.0989
     11 C         141.1910  141.5592  166.5354 C.ar    1  UNL1        0.0826
     12 N         139.8817  140.8469  166.3675 N.ar    1  UNL1       -0.2815
     13 C         139.6073  140.0785  167.6262 C.ar    1  UNL1        0.3316
     14 O         138.4043  139.2229  167.8923 O.2     1  UNL1       -0.2463
     15 N         140.7470  140.3161  168.5720 N.ar    1  UNL1       -0.2765
     16 C         140.8838  139.7396  169.9502 C.3     1  UNL1        0.1352
     17 C         140.6008  144.6816  159.2619 C.ar    1  UNL1        0.0888
     18 C         141.7522  143.7311  159.4069 C.ar    1  UNL1        0.0173
     19 C         142.2869  143.4031  160.7694 C.ar    1  UNL1        0.0029
     20 C         141.6703  144.0254  161.9869 C.ar    1  UNL1        0.0213
     21 C         140.5189  144.9758  161.8420 C.ar    1  UNL1        0.0986
     22 N         139.9841  145.3039  160.4796 N.ar    1  UNL1       -0.2457
     23 C         140.0660  145.0096  157.8995 C.3     1  UNL1        0.1876
     24 C         139.2881  146.7759  156.1601 C.3     1  UNL1        0.1747
     25 O         139.9485  146.4403  157.4645 O.3     1  UNL1       -0.3447
     26 C         139.0014  140.8945  165.1539 C.3     1  UNL1        0.0947
     27 C         138.7877  140.0077  163.9632 C.3     1  UNL1        0.0521
     28 C         137.7564  140.9619  163.4376 C.3     1  UNL1        0.1143
     29 O         136.8761  141.0095  162.2241 O.3     1  UNL1       -0.3843
     30 C         137.9701  141.8487  164.6284 C.3     1  UNL1        0.0521
     31 H         137.0388  140.2261  161.6757 H       1  UNL1        0.2103
@<TRIPOS>BOND
     1    24    25    1
     2    25    23    1
     3    23    17    1
     4    17    18   ar
     5    18    19   ar
     6    19    20   ar
     7    20     1    1
     8     1     2   ar
     9     2     3   ar
    10     3     4   ar
    11     4     5   ar
    12     5     6   ar
    13     6     7    1
    14     4     8   ar
    15     8     9   ar
    16     9    10   ar
    17    10    11   ar
    18    11    12   ar
    19    26    12    1
    20    26    27    1
    21    27    28    1
    22    28    29    1
    23    28    30    1
    24    12    13   ar
    25    13    14    2
    26    13    15   ar
    27    15    16    1
    28    20    21   ar
    29    21    22   ar
    30    22    17   ar
    31     6     1   ar
    32    15    10   ar
    33    11     3   ar
    34    30    26    1
    35    29    31    1
@<TRIPOS>MOLECULE
*****
 31 35 0 0 0
SMALL
GASTEIGER

@<TRIPOS>ATOM
      1 C         143.1421  141.1051  163.1987 C.ar    1  UNL1        0.0291
      2 C         142.0526  140.6226  164.1099 C.ar    1  UNL1        0.0053
      3 C         142.0460  141.0314  165.5531 C.ar    1  UNL1        0.0352
      4 C         143.1289  141.9226  166.0851 C.ar    1  UNL1        0.0850
      5 C         144.2184  142.4051  165.1739 C.ar    1  UNL1        0.0488
      6 C         144.2250  141.9963  163.7308 C.ar    1  UNL1        0.1416
      7 F         145.3145  142.4787  162.8195 F       1  UNL1       -0.2041
      8 N         143.1223  142.3314  167.5283 N.ar    1  UNL1       -0.2422
      9 C         142.0328  141.8490  168.4395 C.ar    1  UNL1        0.1175
     10 C         140.9499  140.9578  167.9075 C.ar    1  UNL1        0.0989
     11 C         140.9565  140.5490  166.4643 C.ar    1  UNL1        0.0826
     12 N         139.7657  139.6684  166.2264 N.ar    1  UNL1       -0.2815
     13 C         139.0232  139.5329  167.5227 C.ar    1  UNL1        0.3316
     14 O         137.7689  138.7398  167.7416 O.2     1  UNL1       -0.2463
     15 N         139.7550  140.3298  168.5616 N.ar    1  UNL1       -0.2765
     16 C         139.3611  140.4735  170.0019 C.3     1  UNL1        0.1352
     17 C         143.1620  139.8787  158.8690 C.ar    1  UNL1        0.0888
     18 C         142.2777  141.0005  159.3267 C.ar    1  UNL1        0.0173
     19 C         142.2711  141.4093  160.7700 C.ar    1  UNL1        0.0029
     20 C         143.1487  140.6963  161.7555 C.ar    1  UNL1        0.0213
     21 C         144.0331  139.5745  161.2978 C.ar    1  UNL1        0.0986
     22 N         144.0397  139.1657  159.8546 N.ar    1  UNL1       -0.2457
     23 C         143.1687  139.4699  157.4259 C.3     1  UNL1        0.1876
     24 C         142.6325  136.9326  157.2693 C.3     1  UNL1        0.1747
     25 O         143.5746  138.0777  157.0426 O.3     1  UNL1       -0.3447
     26 C         139.3845  139.0345  164.9215 C.3     1  UNL1        0.0947
     27 C         138.5623  139.4536  163.7390 C.3     1  UNL1        0.0521
     28 C         138.8453  138.1381  163.0761 C.3     1  UNL1        0.1143
     29 O         138.4640  137.5042  161.7711 O.3     1  UNL1       -0.3843
     30 C         139.6675  137.7190  164.2587 C.3     1  UNL1        0.0521
     31 H         137.9054  138.1154  161.2658 H       1  UNL1        0.2103
@<TRIPOS>BOND
     1    24    25    1
     2    25    23    1
     3    23    17    1
     4    17    18   ar
     5    18    19   ar
     6    19    20   ar
     7    20     1    1
     8     1     2   ar
     9     2     3   ar
    10     3     4   ar
    11     4     5   ar
    12     5     6   ar
    13     6     7    1
    14     4     8   ar
    15     8     9   ar
    16     9    10   ar
    17    10    11   ar
    18    11    12   ar
    19    26    12    1
    20    26    27    1
    21    27    28    1
    22    28    29    1
    23    28    30    1
    24    12    13   ar
    25    13    14    2
    26    13    15   ar
    27    15    16    1
    28    20    21   ar
    29    21    22   ar
    30    22    17   ar
    31     6     1   ar
    32    15    10   ar
    33    11     3   ar
    34    30    26    1
    35    29    31    1
@<TRIPOS>MOLECULE
*****
 31 35 0 0 0
SMALL
GASTEIGER

@<TRIPOS>ATOM
      1 C         140.4858  138.7523  163.5115 C.ar    1  UNL1        0.0291
      2 C         141.2152  139.5937  164.5164 C.ar    1  UNL1        0.0053
      3 C         140.6497  139.7759  165.8937 C.ar    1  UNL1        0.0352
      4 C         139.3547  139.1168  166.2660 C.ar    1  UNL1        0.0850
      5 C         138.6253  138.2755  165.2610 C.ar    1  UNL1        0.0488
      6 C         139.1908  138.0932  163.8838 C.ar    1  UNL1        0.1416
      7 F         138.4614  137.2518  162.8787 F       1  UNL1       -0.2041
      8 N         138.7891  139.2991  167.6433 N.ar    1  UNL1       -0.2422
      9 C         139.5185  140.1405  168.6483 C.ar    1  UNL1        0.1175
     10 C         140.8135  140.7996  168.2760 C.ar    1  UNL1        0.0989
     11 C         141.3791  140.6174  166.8987 C.ar    1  UNL1        0.0826
     12 N         142.6654  141.3849  166.8205 N.ar    1  UNL1       -0.2815
     13 C         142.8949  142.0416  168.1495 C.ar    1  UNL1        0.3316
     14 O         144.0637  142.9079  168.5148 O.2     1  UNL1       -0.2463
     15 N         141.7503  141.6798  169.0490 N.ar    1  UNL1       -0.2765
     16 C         141.5736  142.1209  170.4718 C.3     1  UNL1        0.1352
     17 C         142.1825  138.2054  159.3795 C.ar    1  UNL1        0.0888
     18 C         142.9537  137.7318  160.5757 C.ar    1  UNL1        0.0173
     19 C         142.3882  137.9141  161.9530 C.ar    1  UNL1        0.0029
     20 C         141.0514  138.5700  162.1341 C.ar    1  UNL1        0.0213
     21 C         140.2801  139.0436  160.9380 C.ar    1  UNL1        0.0986
     22 N         140.8456  138.8613  159.5607 N.ar    1  UNL1       -0.2457
     23 C         142.7479  138.0231  158.0022 C.3     1  UNL1        0.1876
     24 C         143.8665  140.3652  158.1200 C.3     1  UNL1        0.1747
     25 O         143.7016  139.0368  157.4429 O.3     1  UNL1       -0.3447
     26 C         143.5645  141.4792  165.6235 C.3     1  UNL1        0.0947
     27 C         144.3488  140.4962  164.8060 C.3     1  UNL1        0.0521
     28 C         144.8359  141.6127  163.9307 C.3     1  UNL1        0.1143
     29 O         145.7350  141.7071  162.7337 O.3     1  UNL1       -0.3843
     30 C         144.0515  142.5958  164.7482 C.3     1  UNL1        0.0521
     31 H         146.0570  140.8222  162.5006 H       1  UNL1        0.2103
@<TRIPOS>BOND
     1    24    25    1
     2    25    23    1
     3    23    17    1
     4    17    18   ar
     5    18    19   ar
     6    19    20   ar
     7    20     1    1
     8     1     2   ar
     9     2     3   ar
    10     3     4   ar
    11     4     5   ar
    12     5     6   ar
    13     6     7    1
    14     4     8   ar
    15     8     9   ar
    16     9    10   ar
    17    10    11   ar
    18    11    12   ar
    19    26    12    1
    20    26    27    1
    21    27    28    1
    22    28    29    1
    23    28    30    1
    24    12    13   ar
    25    13    14    2
    26    13    15   ar
    27    15    16    1
    28    20    21   ar
    29    21    22   ar
    30    22    17   ar
    31     6     1   ar
    32    15    10   ar
    33    11     3   ar
    34    30    26    1
    35    29    31    1
@<TRIPOS>MOLECULE
*****
 31 35 0 0 0
SMALL
GASTEIGER

@<TRIPOS>ATOM
      1 C         140.4163  139.1079  165.3166 C.ar    1  UNL1        0.0291
      2 C         141.3158  139.7855  164.3258 C.ar    1  UNL1        0.0053
      3 C         141.2720  139.3893  162.8798 C.ar    1  UNL1        0.0352
      4 C         140.3287  138.3155  162.4245 C.ar    1  UNL1        0.0850
      5 C         139.4292  137.6380  163.4153 C.ar    1  UNL1        0.0488
      6 C         139.4730  138.0341  164.8613 C.ar    1  UNL1        0.1416
      7 F         138.5734  137.3566  165.8522 F       1  UNL1       -0.2041
      8 N         140.2850  137.9194  160.9784 N.ar    1  UNL1       -0.2422
      9 C         141.1845  138.5970  159.9876 C.ar    1  UNL1        0.1175
     10 C         142.1278  139.6707  160.4429 C.ar    1  UNL1        0.0989
     11 C         142.1716  140.0669  161.8889 C.ar    1  UNL1        0.0826
     12 N         143.1970  141.1509  162.0417 N.ar    1  UNL1       -0.2815
     13 C         143.7869  141.4247  160.6901 C.ar    1  UNL1        0.3316
     14 O         144.8509  142.4359  160.3809 O.2     1  UNL1       -0.2463
     15 N         143.1262  140.5099  159.7019 N.ar    1  UNL1       -0.2765
     16 C         143.4133  140.4456  158.2310 C.3     1  UNL1        0.1352
     17 C         140.5474  140.2963  169.6549 C.ar    1  UNL1        0.0888
     18 C         141.8215  140.1677  168.8737 C.ar    1  UNL1        0.0173
     19 C         141.7777  139.7715  167.4275 C.ar    1  UNL1        0.0029
     20 C         140.4600  139.5040  166.7627 C.ar    1  UNL1        0.0213
     21 C         139.1860  139.6327  167.5440 C.ar    1  UNL1        0.0986
     22 N         139.2297  140.0288  168.9900 N.ar    1  UNL1       -0.2457
     23 C         140.5911  140.6925  171.1010 C.3     1  UNL1        0.1876
     24 C         140.0330  143.1446  170.4486 C.3     1  UNL1        0.1747
     25 O         140.3761  142.1242  171.4932 O.3     1  UNL1       -0.3447
     26 C         143.5673  141.8401  163.3215 C.3     1  UNL1        0.0947
     27 C         144.5869  141.6049  164.3963 C.3     1  UNL1        0.0521
     28 C         144.0911  142.8149  165.1313 C.3     1  UNL1        0.1143
     29 O         144.4615  143.5041  166.4111 O.3     1  UNL1       -0.3843
     30 C         143.0715  143.0501  164.0565 C.3     1  UNL1        0.0521
     31 H         145.1946  143.0296  166.8334 H       1  UNL1        0.2103
@<TRIPOS>BOND
     1    24    25    1
     2    25    23    1
     3    23    17    1
     4    17    18   ar
     5    18    19   ar
     6    19    20   ar
     7    20     1    1
     8     1     2   ar
     9     2     3   ar
    10     3     4   ar
    11     4     5   ar
    12     5     6   ar
    13     6     7    1
    14     4     8   ar
    15     8     9   ar
    16     9    10   ar
    17    10    11   ar
    18    11    12   ar
    19    26    12    1
    20    26    27    1
    21    27    28    1
    22    28    29    1
    23    28    30    1
    24    12    13   ar
    25    13    14    2
    26    13    15   ar
    27    15    16    1
    28    20    21   ar
    29    21    22   ar
    30    22    17   ar
    31     6     1   ar
    32    15    10   ar
    33    11     3   ar
    34    30    26    1
    35    29    31    1
@<TRIPOS>MOLECULE
*****
 31 35 0 0 0
SMALL
GASTEIGER

@<TRIPOS>ATOM
      1 C         142.0602  139.9485  164.7973 C.ar    1  UNL1        0.0291
      2 C         141.9231  141.0628  163.8025 C.ar    1  UNL1        0.0053
      3 C         142.5736  140.9499  162.4556 C.ar    1  UNL1        0.0352
      4 C         143.3612  139.7229  162.1036 C.ar    1  UNL1        0.0850
      5 C         143.4983  138.6086  163.0984 C.ar    1  UNL1        0.0488
      6 C         142.8478  138.7215  164.4452 C.ar    1  UNL1        0.1416
      7 F         142.9849  137.6072  165.4401 F       1  UNL1       -0.2041
      8 N         144.0118  139.6100  160.7566 N.ar    1  UNL1       -0.2422
      9 C         143.8747  140.7243  159.7618 C.ar    1  UNL1        0.1175
     10 C         143.0871  141.9513  160.1139 C.ar    1  UNL1        0.0989
     11 C         142.4365  142.0642  161.4607 C.ar    1  UNL1        0.0826
     12 N         141.7277  143.3846  161.5241 N.ar    1  UNL1       -0.2815
     13 C         141.9402  144.0879  160.2163 C.ar    1  UNL1        0.3316
     14 O         141.4063  145.4397  159.8452 O.2     1  UNL1       -0.2463
     15 N         142.7803  143.2021  159.3448 N.ar    1  UNL1       -0.2765
     16 C         143.2341  143.5125  157.9491 C.3     1  UNL1        0.1352
     17 C         140.1087  140.2870  168.8380 C.ar    1  UNL1        0.0888
     18 C         139.2720  140.0275  167.6204 C.ar    1  UNL1        0.0173
     19 C         139.9225  139.9147  166.2735 C.ar    1  UNL1        0.0029
     20 C         141.4097  140.0614  166.1442 C.ar    1  UNL1        0.0213
     21 C         142.2464  140.3208  167.3618 C.ar    1  UNL1        0.0986
     22 N         141.5959  140.4336  168.7087 N.ar    1  UNL1       -0.2457
     23 C         139.4582  140.3998  170.1849 C.3     1  UNL1        0.1876
     24 C         139.8959  142.9502  170.4170 C.3     1  UNL1        0.1747
     25 O         139.0537  141.7445  170.7121 O.3     1  UNL1       -0.3447
     26 C         140.9441  143.9096  162.6904 C.3     1  UNL1        0.0947
     27 C         139.5142  143.8192  163.1344 C.3     1  UNL1        0.0521
     28 C         139.8359  144.6521  164.3398 C.3     1  UNL1        0.1143
     29 O         139.0522  145.1771  165.5061 O.3     1  UNL1       -0.3843
     30 C         141.2658  144.7426  163.8957 C.3     1  UNL1        0.0521
     31 H         138.1282  144.8922  165.4293 H       1  UNL1        0.2103
@<TRIPOS>BOND
     1    24    25    1
     2    25    23    1
     3    23    17    1
     4    17    18   ar
     5    18    19   ar
     6    19    20   ar
     7    20     1    1
     8     1     2   ar
     9     2     3   ar
    10     3     4   ar
    11     4     5   ar
    12     5     6   ar
    13     6     7    1
    14     4     8   ar
    15     8     9   ar
    16     9    10   ar
    17    10    11   ar
    18    11    12   ar
    19    26    12    1
    20    26    27    1
    21    27    28    1
    22    28    29    1
    23    28    30    1
    24    12    13   ar
    25    13    14    2
    26    13    15   ar
    27    15    16    1
    28    20    21   ar
    29    21    22   ar
    30    22    17   ar
    31     6     1   ar
    32    15    10   ar
    33    11     3   ar
    34    30    26    1
    35    29    31    1
@<TRIPOS>MOLECULE
*****
 31 35 0 0 0
SMALL
GASTEIGER

@<TRIPOS>ATOM
      1 C         140.7094  143.2450  164.6664 C.ar    1  UNL1        0.0291
      2 C         141.4620  143.0332  163.3863 C.ar    1  UNL1        0.0053
      3 C         141.1246  143.8496  162.1741 C.ar    1  UNL1        0.0352
      4 C         140.0346  144.8779  162.2420 C.ar    1  UNL1        0.0850
      5 C         139.2820  145.0897  163.5221 C.ar    1  UNL1        0.0488
      6 C         139.6194  144.2733  164.7343 C.ar    1  UNL1        0.1416
      7 F         138.8668  144.4850  166.0145 F       1  UNL1       -0.2041
      8 N         139.6972  145.6944  161.0296 N.ar    1  UNL1       -0.2422
      9 C         140.4498  145.4825  159.7495 C.ar    1  UNL1        0.1175
     10 C         141.5398  144.4543  159.6817 C.ar    1  UNL1        0.0989
     11 C         141.8772  143.6379  160.8939 C.ar    1  UNL1        0.0826
     12 N         142.9932  142.7047  160.5284 N.ar    1  UNL1       -0.2815
     13 C         143.3455  142.9444  159.0901 C.ar    1  UNL1        0.3316
     14 O         144.4093  142.2284  158.3119 O.2     1  UNL1       -0.2463
     15 N         142.4472  144.0257  158.5669 N.ar    1  UNL1       -0.2765
     16 C         142.4551  144.5810  157.1734 C.3     1  UNL1        0.1352
     17 C         141.7215  140.7956  168.3033 C.ar    1  UNL1        0.0888
     18 C         142.7674  141.6639  167.6690 C.ar    1  UNL1        0.0173
     19 C         142.4300  142.4803  166.4566 C.ar    1  UNL1        0.0029
     20 C         141.0468  142.4285  165.8787 C.ar    1  UNL1        0.0213
     21 C         140.0009  141.5603  166.5130 C.ar    1  UNL1        0.0986
     22 N         140.3383  140.7439  167.7253 N.ar    1  UNL1       -0.2457
     23 C         142.0589  139.9792  169.5155 C.3     1  UNL1        0.1876
     24 C         141.1625  141.7688  171.1720 C.3     1  UNL1        0.1747
     25 O         142.0818  140.6225  170.8703 O.3     1  UNL1       -0.3447
     26 C         143.6428  141.7069  161.4408 C.3     1  UNL1        0.0947
     27 C         144.8345  141.7212  162.3515 C.3     1  UNL1        0.0521
     28 C         144.5614  140.2959  162.7311 C.3     1  UNL1        0.1143
     29 O         145.2110  139.2981  163.6436 O.3     1  UNL1       -0.3843
     30 C         143.3696  140.2816  161.8204 C.3     1  UNL1        0.0521
     31 H         145.9826  139.7037  164.0692 H       1  UNL1        0.2103
@<TRIPOS>BOND
     1    24    25    1
     2    25    23    1
     3    23    17    1
     4    17    18   ar
     5    18    19   ar
     6    19    20   ar
     7    20     1    1
     8     1     2   ar
     9     2     3   ar
    10     3     4   ar
    11     4     5   ar
    12     5     6   ar
    13     6     7    1
    14     4     8   ar
    15     8     9   ar
    16     9    10   ar
    17    10    11   ar
    18    11    12   ar
    19    26    12    1
    20    26    27    1
    21    27    28    1
    22    28    29    1
    23    28    30    1
    24    12    13   ar
    25    13    14    2
    26    13    15   ar
    27    15    16    1
    28    20    21   ar
    29    21    22   ar
    30    22    17   ar
    31     6     1   ar
    32    15    10   ar
    33    11     3   ar
    34    30    26    1
    35    29    31    1
@<TRIPOS>MOLECULE
*****
 31 35 0 0 0
SMALL
GASTEIGER

@<TRIPOS>ATOM
      1 C         142.8500  142.2325  165.3630 C.ar    1  UNL1        0.0291
      2 C         142.1218  141.3876  164.3601 C.ar    1  UNL1        0.0053
      3 C         142.6121  141.3139  162.9445 C.ar    1  UNL1        0.0352
      4 C         143.8306  142.0852  162.5317 C.ar    1  UNL1        0.0850
      5 C         144.5587  142.9301  163.5345 C.ar    1  UNL1        0.0488
      6 C         144.0684  143.0038  164.9502 C.ar    1  UNL1        0.1416
      7 F         144.7966  143.8488  165.9531 F       1  UNL1       -0.2041
      8 N         144.3209  142.0115  161.1159 N.ar    1  UNL1       -0.2422
      9 C         143.5927  141.1665  160.1131 C.ar    1  UNL1        0.1175
     10 C         142.3742  140.3952  160.5259 C.ar    1  UNL1        0.0989
     11 C         141.8839  140.4689  161.9416 C.ar    1  UNL1        0.0826
     12 N         140.6635  139.6042  162.0551 N.ar    1  UNL1       -0.2815
     13 C         140.3996  138.9961  160.7095 C.ar    1  UNL1        0.3316
     14 O         139.2756  138.0629  160.3689 O.2     1  UNL1       -0.2463
     15 N         141.4568  139.4850  159.7644 N.ar    1  UNL1       -0.2765
     16 C         141.5758  139.1265  158.3127 C.3     1  UNL1        0.1352
     17 C         141.3790  142.4537  169.6101 C.ar    1  UNL1        0.0888
     18 C         142.8319  142.2056  169.3316 C.ar    1  UNL1        0.0173
     19 C         143.3222  142.1319  167.9158 C.ar    1  UNL1        0.0029
     20 C         142.3597  142.3062  166.7787 C.ar    1  UNL1        0.0213
     21 C         140.9068  142.5543  167.0573 C.ar    1  UNL1        0.0986
     22 N         140.4165  142.6280  168.4729 N.ar    1  UNL1       -0.2457
     23 C         140.8887  142.5274  171.0258 C.3     1  UNL1        0.1876
     24 C         140.2441  140.0113  170.9610 C.3     1  UNL1        0.1747
     25 O         140.4542  141.2791  171.7349 O.3     1  UNL1       -0.3447
     26 C         139.8499  139.3859  163.2962 C.3     1  UNL1        0.0947
     27 C         138.6688  140.0654  163.9233 C.3     1  UNL1        0.0521
     28 C         138.6994  139.0772  165.0515 C.3     1  UNL1        0.1143
     29 O         137.8858  138.8589  166.2926 O.3     1  UNL1       -0.3843
     30 C         139.8805  138.3977  164.4243 C.3     1  UNL1        0.0521
     31 H         137.1880  139.5308  166.3441 H       1  UNL1        0.2103
@<TRIPOS>BOND
     1    24    25    1
     2    25    23    1
     3    23    17    1
     4    17    18   ar
     5    18    19   ar
     6    19    20   ar
     7    20     1    1
     8     1     2   ar
     9     2     3   ar
    10     3     4   ar
    11     4     5   ar
    12     5     6   ar
    13     6     7    1
    14     4     8   ar
    15     8     9   ar
    16     9    10   ar
    17    10    11   ar
    18    11    12   ar
    19    26    12    1
    20    26    27    1
    21    27    28    1
    22    28    29    1
    23    28    30    1
    24    12    13   ar
    25    13    14    2
    26    13    15   ar
    27    15    16    1
    28    20    21   ar
    29    21    22   ar
    30    22    17   ar
    31     6     1   ar
    32    15    10   ar
    33    11     3   ar
    34    30    26    1
    35    29    31    1
@<TRIPOS>MOLECULE
*****
 31 35 0 0 0
SMALL
GASTEIGER

@<TRIPOS>ATOM
      1 C         142.8833  141.6760  164.8317 C.ar    1  UNL1        0.0291
      2 C         141.7125  141.2624  163.9903 C.ar    1  UNL1        0.0053
      3 C         141.6885  141.5885  162.5264 C.ar    1  UNL1        0.0352
      4 C         142.8354  142.3283  161.9040 C.ar    1  UNL1        0.0850
      5 C         144.0062  142.7419  162.7454 C.ar    1  UNL1        0.0488
      6 C         144.0302  142.4158  164.2093 C.ar    1  UNL1        0.1416
      7 F         145.2010  142.8294  165.0508 F       1  UNL1       -0.2041
      8 N         142.8113  142.6545  160.4400 N.ar    1  UNL1       -0.2422
      9 C         141.6405  142.2409  159.5986 C.ar    1  UNL1        0.1175
     10 C         140.4937  141.5011  160.2210 C.ar    1  UNL1        0.0989
     11 C         140.5176  141.1749  161.6849 C.ar    1  UNL1        0.0826
     12 N         139.2525  140.4408  162.0171 N.ar    1  UNL1       -0.2815
     13 C         138.4465  140.3133  160.7584 C.ar    1  UNL1        0.3316
     14 O         137.1084  139.6473  160.6320 O.2     1  UNL1       -0.2463
     15 N         139.2136  140.9685  159.6484 N.ar    1  UNL1       -0.2765
     16 C         138.7773  141.0730  158.2170 C.3     1  UNL1        0.1352
     17 C         142.9553  140.6975  169.2235 C.ar    1  UNL1        0.0888
     18 C         143.0844  142.1215  168.7702 C.ar    1  UNL1        0.0173
     19 C         143.0604  142.4477  167.3062 C.ar    1  UNL1        0.0029
     20 C         142.9073  141.3498  166.2957 C.ar    1  UNL1        0.0213
     21 C         142.7783  139.9258  166.7490 C.ar    1  UNL1        0.0986
     22 N         142.8023  139.5996  168.2129 N.ar    1  UNL1       -0.2457
     23 C         142.9793  140.3713  170.6874 C.3     1  UNL1        0.1876
     24 C         140.4513  140.8280  171.0757 C.3     1  UNL1        0.1747
     25 O         141.8649  140.8356  171.5776 O.3     1  UNL1       -0.3447
     26 C         138.8618  139.9248  163.3702 C.3     1  UNL1        0.0947
     27 C         138.1614  140.5028  164.5641 C.3     1  UNL1        0.0521
     28 C         138.3093  139.1951  165.2839 C.3     1  UNL1        0.1143
     29 O         137.9187  138.6791  166.6371 O.3     1  UNL1       -0.3843
     30 C         139.0098  138.6171  164.0900 C.3     1  UNL1        0.0521
     31 H         137.4687  139.3808  167.1332 H       1  UNL1        0.2103
@<TRIPOS>BOND
     1    24    25    1
     2    25    23    1
     3    23    17    1
     4    17    18   ar
     5    18    19   ar
     6    19    20   ar
     7    20     1    1
     8     1     2   ar
     9     2     3   ar
    10     3     4   ar
    11     4     5   ar
    12     5     6   ar
    13     6     7    1
    14     4     8   ar
    15     8     9   ar
    16     9    10   ar
    17    10    11   ar
    18    11    12   ar
    19    26    12    1
    20    26    27    1
    21    27    28    1
    22    28    29    1
    23    28    30    1
    24    12    13   ar
    25    13    14    2
    26    13    15   ar
    27    15    16    1
    28    20    21   ar
    29    21    22   ar
    30    22    17   ar
    31     6     1   ar
    32    15    10   ar
    33    11     3   ar
    34    30    26    1
    35    29    31    1
@<TRIPOS>MOLECULE
*****
 31 35 0 0 0
SMALL
GASTEIGER

@<TRIPOS>ATOM
      1 C         140.4752  139.9422  164.6398 C.ar    1  UNL1        0.0291
      2 C         141.2818  139.9542  163.3753 C.ar    1  UNL1        0.0053
      3 C         140.6725  139.4713  162.0925 C.ar    1  UNL1        0.0352
      4 C         139.2566  138.9765  162.0743 C.ar    1  UNL1        0.0850
      5 C         138.4500  138.9645  163.3389 C.ar    1  UNL1        0.0488
      6 C         139.0593  139.4474  164.6216 C.ar    1  UNL1        0.1416
      7 F         138.2526  139.4355  165.8863 F       1  UNL1       -0.2041
      8 N         138.6473  138.4936  160.7914 N.ar    1  UNL1       -0.2422
      9 C         139.4539  138.5055  159.5269 C.ar    1  UNL1        0.1175
     10 C         140.8698  139.0004  159.5451 C.ar    1  UNL1        0.0989
     11 C         141.4791  139.4832  160.8278 C.ar    1  UNL1        0.0826
     12 N         142.8878  139.9107  160.5399 N.ar    1  UNL1       -0.2815
     13 C         143.1491  139.6921  159.0791 C.ar    1  UNL1        0.3316
     14 O         144.4323  139.9847  158.3595 O.2     1  UNL1       -0.2463
     15 N         141.9019  139.1294  158.4643 N.ar    1  UNL1       -0.2765
     16 C         141.7190  138.7606  157.0218 C.3     1  UNL1        0.1352
     17 C         142.3030  141.3909  168.4883 C.ar    1  UNL1        0.0888
     18 C         141.4016  142.2938  167.6996 C.ar    1  UNL1        0.0173
     19 C         140.7923  141.8109  166.4168 C.ar    1  UNL1        0.0029
     20 C         141.0845  140.4251  165.9227 C.ar    1  UNL1        0.0213
     21 C         141.9859  139.5222  166.7114 C.ar    1  UNL1        0.0986
     22 N         142.5952  140.0050  167.9942 N.ar    1  UNL1       -0.2457
     23 C         142.9123  141.8737  169.7711 C.3     1  UNL1        0.1876
     24 C         140.8359  141.0243  171.0815 C.3     1  UNL1        0.1747
     25 O         142.2027  141.6422  171.0722 O.3     1  UNL1       -0.3447
     26 C         143.8637  140.4604  161.5376 C.3     1  UNL1        0.0947
     27 C         144.5884  139.9067  162.7284 C.3     1  UNL1        0.0521
     28 C         145.2440  141.2378  162.9484 C.3     1  UNL1        0.1143
     29 O         146.2200  141.7875  163.9461 O.3     1  UNL1       -0.3843
     30 C         144.5193  141.7916  161.7575 C.3     1  UNL1        0.0521
     31 H         146.4601  141.0934  164.5797 H       1  UNL1        0.2103
@<TRIPOS>BOND
     1    24    25    1
     2    25    23    1
     3    23    17    1
     4    17    18   ar
     5    18    19   ar
     6    19    20   ar
     7    20     1    1
     8     1     2   ar
     9     2     3   ar
    10     3     4   ar
    11     4     5   ar
    12     5     6   ar
    13     6     7    1
    14     4     8   ar
    15     8     9   ar
    16     9    10   ar
    17    10    11   ar
    18    11    12   ar
    19    26    12    1
    20    26    27    1
    21    27    28    1
    22    28    29    1
    23    28    30    1
    24    12    13   ar
    25    13    14    2
    26    13    15   ar
    27    15    16    1
    28    20    21   ar
    29    21    22   ar
    30    22    17   ar
    31     6     1   ar
    32    15    10   ar
    33    11     3   ar
    34    30    26    1
    35    29    31    1
