@<TRIPOS>MOLECULE
*****
 29 32 0 0 0
SMALL
GASTEIGER

@<TRIPOS>ATOM
      1 C         138.5160  141.8091  161.3448 C.3     1  UNL1        0.0501
      2 C         139.3668  142.4841  162.3794 C.ar    1  UNL1        0.0404
      3 C         139.9827  143.8468  162.2622 C.ar    1  UNL1        0.0074
      4 C         140.7476  144.1198  163.5233 C.ar    1  UNL1        0.0158
      5 C         140.6046  142.9259  164.4199 C.ar    1  UNL1        0.0647
      6 N         139.7512  141.9149  163.7130 N.ar    1  UNL1       -0.2957
      7 C         139.3522  140.5708  164.2460 C.ar    1  UNL1        0.1476
      8 C         138.3911  140.4741  165.3935 C.ar    1  UNL1        0.0397
      9 C         137.9920  139.1300  165.9266 C.ar    1  UNL1        0.0343
     10 C         138.5542  137.8824  165.3120 C.ar    1  UNL1        0.1593
     11 F         138.1553  136.5383  165.8451 F       1  UNL1       -0.2025
     12 C         139.5154  137.9791  164.1645 C.ar    1  UNL1        0.1300
     13 N         139.9144  139.3232  163.6315 N.ar    1  UNL1       -0.2241
     14 C         141.2088  142.7702  165.7840 C.ar    1  UNL1        0.0161
     15 C         140.3606  142.9606  167.0062 C.ar    1  UNL1        0.0011
     16 C         140.9648  142.8049  168.3703 C.ar    1  UNL1       -0.0042
     17 C         142.4173  142.4587  168.5120 C.ar    1  UNL1       -0.0225
     18 C         143.2657  142.2682  167.2898 C.ar    1  UNL1       -0.0042
     19 C         142.6615  142.4239  165.9257 C.ar    1  UNL1        0.0011
     20 C         143.0215  142.3030  169.8761 C.3     1  UNL1        0.0224
     21 C         142.1909  141.7768  171.0087 C.3     1  UNL1        0.0047
     22 C         144.4565  142.6736  170.1075 C.3     1  UNL1        0.0047
     23 C         139.8558  144.7737  161.0898 C.3     1  UNL1        0.1004
     24 N         140.8123  144.6634  159.9395 N.3     1  UNL1       -0.2646
     25 C         140.6474  145.5481  158.7395 C.3     1  UNL1        0.1049
     26 C         141.6038  145.4378  157.5893 C.3     1  UNL1        0.1595
     27 O         142.7252  144.4427  157.6391 O.3     1  UNL1       -0.3508
     28 C         142.8900  143.5580  158.8391 C.3     1  UNL1        0.1595
     29 C         141.9336  143.6683  159.9893 C.3     1  UNL1        0.1049
@<TRIPOS>BOND
     1     1     2    1
     2     2     3   ar
     3     3    23    1
     4    23    24    1
     5    24    25    1
     6    25    26    1
     7    26    27    1
     8    27    28    1
     9    28    29    1
    10     3     4   ar
    11     4     5   ar
    12     5    14    1
    13    14    15   ar
    14    15    16   ar
    15    16    17   ar
    16    17    20    1
    17    20    21    1
    18    20    22    1
    19    17    18   ar
    20    18    19   ar
    21     5     6   ar
    22     6     7    1
    23     7     8   ar
    24     8     9   ar
    25     9    10   ar
    26    10    11    1
    27    10    12   ar
    28    12    13   ar
    29     6     2   ar
    30    13     7   ar
    31    29    24    1
    32    19    14   ar
@<TRIPOS>MOLECULE
*****
 29 32 0 0 0
SMALL
GASTEIGER

@<TRIPOS>ATOM
      1 C         141.5499  140.3084  160.6455 C.3     1  UNL1        0.0501
      2 C         141.9419  141.2001  161.7862 C.ar    1  UNL1        0.0404
      3 C         142.7861  142.4362  161.6892 C.ar    1  UNL1        0.0074
      4 C         142.9245  143.0123  163.0673 C.ar    1  UNL1        0.0158
      5 C         142.1658  142.1323  164.0159 C.ar    1  UNL1        0.0647
      6 N         141.5585  141.0123  163.2242 N.ar    1  UNL1       -0.2957
      7 C         140.7158  139.8998  163.7739 C.ar    1  UNL1        0.1476
      8 C         141.3477  138.5880  164.1345 C.ar    1  UNL1        0.0397
      9 C         140.5051  137.4755  164.6842 C.ar    1  UNL1        0.0343
     10 C         139.0304  137.6747  164.8733 C.ar    1  UNL1        0.1593
     11 F         138.1876  136.5622  165.4230 F       1  UNL1       -0.2025
     12 C         138.3985  138.9865  164.5127 C.ar    1  UNL1        0.1300
     13 N         139.2412  140.0990  163.9630 N.ar    1  UNL1       -0.2241
     14 C         142.0370  142.3364  165.4964 C.ar    1  UNL1        0.0161
     15 C         140.7048  142.6820  166.0927 C.ar    1  UNL1        0.0011
     16 C         140.5759  142.8861  167.5731 C.ar    1  UNL1       -0.0042
     17 C         141.7793  142.7447  168.4572 C.ar    1  UNL1       -0.0225
     18 C         143.1116  142.3991  167.8610 C.ar    1  UNL1       -0.0042
     19 C         143.2404  142.1950  166.3805 C.ar    1  UNL1        0.0011
     20 C         141.6505  142.9488  169.9377 C.3     1  UNL1        0.0224
     21 C         142.8692  143.2340  170.7643 C.3     1  UNL1        0.0047
     22 C         140.3029  142.8678  170.5915 C.3     1  UNL1        0.0047
     23 C         143.3866  142.9975  160.4345 C.3     1  UNL1        0.1004
     24 N         142.5663  143.8787  159.5396 N.3     1  UNL1       -0.2646
     25 C         142.8992  143.9838  158.0808 C.3     1  UNL1        0.1049
     26 C         142.0790  144.8649  157.1860 C.3     1  UNL1        0.1595
     27 O         140.9259  145.6410  157.7499 O.3     1  UNL1       -0.3508
     28 C         140.5930  145.5359  159.2087 C.3     1  UNL1        0.1595
     29 C         141.4132  144.6548  160.1036 C.3     1  UNL1        0.1049
@<TRIPOS>BOND
     1     1     2    1
     2     2     3   ar
     3     3    23    1
     4    23    24    1
     5    24    25    1
     6    25    26    1
     7    26    27    1
     8    27    28    1
     9    28    29    1
    10     3     4   ar
    11     4     5   ar
    12     5    14    1
    13    14    15   ar
    14    15    16   ar
    15    16    17   ar
    16    17    20    1
    17    20    21    1
    18    20    22    1
    19    17    18   ar
    20    18    19   ar
    21     5     6   ar
    22     6     7    1
    23     7     8   ar
    24     8     9   ar
    25     9    10   ar
    26    10    11    1
    27    10    12   ar
    28    12    13   ar
    29     6     2   ar
    30    13     7   ar
    31    29    24    1
    32    19    14   ar
@<TRIPOS>MOLECULE
*****
 29 32 0 0 0
SMALL
GASTEIGER

@<TRIPOS>ATOM
      1 C         140.4446  139.3070  157.1334 C.3     1  UNL1        0.0501
      2 C         141.2851  138.7441  158.2409 C.ar    1  UNL1        0.0404
      3 C         142.3620  137.7106  158.0925 C.ar    1  UNL1        0.0074
      4 C         142.9388  137.4437  159.4512 C.ar    1  UNL1        0.0158
      5 C         142.2184  138.3123  160.4394 C.ar    1  UNL1        0.0647
      6 N         141.1964  139.1160  159.6914 N.ar    1  UNL1       -0.2957
      7 C         140.2514  140.1160  160.2889 C.ar    1  UNL1        0.1476
      8 C         138.9235  139.6672  160.8230 C.ar    1  UNL1        0.0397
      9 C         137.9785  140.6671  161.4206 C.ar    1  UNL1        0.0343
     10 C         138.3615  142.1161  161.4841 C.ar    1  UNL1        0.1593
     11 F         137.4166  143.1161  162.0816 F       1  UNL1       -0.2025
     12 C         139.6894  142.5649  160.9500 C.ar    1  UNL1        0.1300
     13 N         140.6344  141.5649  160.3525 N.ar    1  UNL1       -0.2241
     14 C         142.4750  138.3675  161.9163 C.ar    1  UNL1        0.0161
     15 C         141.5174  137.7152  162.8688 C.ar    1  UNL1        0.0011
     16 C         141.7739  137.7704  164.3456 C.ar    1  UNL1       -0.0042
     17 C         142.9881  138.4779  164.8700 C.ar    1  UNL1       -0.0225
     18 C         143.9458  139.1303  163.9175 C.ar    1  UNL1       -0.0042
     19 C         143.6892  139.0751  162.4406 C.ar    1  UNL1        0.0011
     20 C         143.2447  138.5331  166.3468 C.3     1  UNL1        0.0224
     21 C         144.2137  137.5767  166.9760 C.3     1  UNL1        0.0047
     22 C         142.5321  139.5449  167.1945 C.3     1  UNL1        0.0047
     23 C         142.7875  137.0584  156.8105 C.3     1  UNL1        0.1004
     24 N         142.5675  135.5885  156.6076 N.3     1  UNL1       -0.2646
     25 C         141.5567  135.1125  155.6069 C.3     1  UNL1        0.1049
     26 C         141.3368  133.6427  155.4041 C.3     1  UNL1        0.1595
     27 O         142.1277  132.6488  156.2021 O.3     1  UNL1       -0.3508
     28 C         143.1385  133.1249  157.2029 C.3     1  UNL1        0.1595
     29 C         143.3584  134.5947  157.4056 C.3     1  UNL1        0.1049
@<TRIPOS>BOND
     1     1     2    1
     2     2     3   ar
     3     3    23    1
     4    23    24    1
     5    24    25    1
     6    25    26    1
     7    26    27    1
     8    27    28    1
     9    28    29    1
    10     3     4   ar
    11     4     5   ar
    12     5    14    1
    13    14    15   ar
    14    15    16   ar
    15    16    17   ar
    16    17    20    1
    17    20    21    1
    18    20    22    1
    19    17    18   ar
    20    18    19   ar
    21     5     6   ar
    22     6     7    1
    23     7     8   ar
    24     8     9   ar
    25     9    10   ar
    26    10    11    1
    27    10    12   ar
    28    12    13   ar
    29     6     2   ar
    30    13     7   ar
    31    29    24    1
    32    19    14   ar
@<TRIPOS>MOLECULE
*****
 29 32 0 0 0
SMALL
GASTEIGER

@<TRIPOS>ATOM
      1 C         143.3076  140.1338  158.5526 C.3     1  UNL1        0.0501
      2 C         142.1521  139.5801  159.3324 C.ar    1  UNL1        0.0404
      3 C         141.0063  138.7916  158.7707 C.ar    1  UNL1        0.0074
      4 C         140.0856  138.4419  159.9020 C.ar    1  UNL1        0.0158
      5 C         140.6622  139.0143  161.1629 C.ar    1  UNL1        0.0647
      6 N         141.9394  139.7177  160.8108 N.ar    1  UNL1       -0.2957
      7 C         142.8450  140.4332  161.7690 C.ar    1  UNL1        0.1476
      8 C         144.0345  139.7256  162.3473 C.ar    1  UNL1        0.0397
      9 C         144.9401  140.4410  163.3055 C.ar    1  UNL1        0.0343
     10 C         144.6561  141.8641  163.6854 C.ar    1  UNL1        0.1593
     11 F         145.5617  142.5796  164.6436 F       1  UNL1       -0.2025
     12 C         143.4667  142.5717  163.1071 C.ar    1  UNL1        0.1300
     13 N         142.5611  141.8562  162.1489 N.ar    1  UNL1       -0.2241
     14 C         140.0663  138.9028  162.5349 C.ar    1  UNL1        0.0161
     15 C         140.4103  137.7336  163.4093 C.ar    1  UNL1        0.0011
     16 C         139.8145  137.6221  164.7813 C.ar    1  UNL1       -0.0042
     17 C         138.8746  138.6798  165.2789 C.ar    1  UNL1       -0.0225
     18 C         138.5305  139.8490  164.4046 C.ar    1  UNL1       -0.0042
     19 C         139.1264  139.9605  163.0326 C.ar    1  UNL1        0.0011
     20 C         138.2787  138.5683  166.6510 C.3     1  UNL1        0.0224
     21 C         138.6161  139.5857  167.7002 C.3     1  UNL1        0.0047
     22 C         137.3453  137.4393  166.9738 C.3     1  UNL1        0.0047
     23 C         140.8150  138.4184  157.3305 C.3     1  UNL1        0.1004
     24 N         141.3905  137.1366  156.8051 N.3     1  UNL1       -0.2646
     25 C         142.6781  136.6079  157.3639 C.3     1  UNL1        0.1049
     26 C         143.2535  135.3262  156.8384 C.3     1  UNL1        0.1595
     27 O         142.5413  134.5733  155.7541 O.3     1  UNL1       -0.3508
     28 C         141.2536  135.1020  155.1953 C.3     1  UNL1        0.1595
     29 C         140.6782  136.3837  155.7207 C.3     1  UNL1        0.1049
@<TRIPOS>BOND
     1     1     2    1
     2     2     3   ar
     3     3    23    1
     4    23    24    1
     5    24    25    1
     6    25    26    1
     7    26    27    1
     8    27    28    1
     9    28    29    1
    10     3     4   ar
    11     4     5   ar
    12     5    14    1
    13    14    15   ar
    14    15    16   ar
    15    16    17   ar
    16    17    20    1
    17    20    21    1
    18    20    22    1
    19    17    18   ar
    20    18    19   ar
    21     5     6   ar
    22     6     7    1
    23     7     8   ar
    24     8     9   ar
    25     9    10   ar
    26    10    11    1
    27    10    12   ar
    28    12    13   ar
    29     6     2   ar
    30    13     7   ar
    31    29    24    1
    32    19    14   ar
@<TRIPOS>MOLECULE
*****
 29 32 0 0 0
SMALL
GASTEIGER

@<TRIPOS>ATOM
      1 C         142.6021  139.5112  158.4131 C.3     1  UNL1        0.0501
      2 C         141.4357  139.1996  159.3033 C.ar    1  UNL1        0.0404
      3 C         140.0903  138.7109  158.8551 C.ar    1  UNL1        0.0074
      4 C         139.2331  138.5313  160.0729 C.ar    1  UNL1        0.0158
      5 C         140.0487  138.9090  161.2737 C.ar    1  UNL1        0.0647
      6 N         141.4101  139.3221  160.7981 N.ar    1  UNL1       -0.2957
      7 C         142.5463  139.7776  161.6651 C.ar    1  UNL1        0.1476
      8 C         143.2651  138.7924  162.5383 C.ar    1  UNL1        0.0397
      9 C         144.4013  139.2478  163.4053 C.ar    1  UNL1        0.0343
     10 C         144.8186  140.6886  163.3990 C.ar    1  UNL1        0.1593
     11 F         145.9548  141.1441  164.2660 F       1  UNL1       -0.2025
     12 C         144.0998  141.6738  162.5258 C.ar    1  UNL1        0.1300
     13 N         142.9636  141.2183  161.6588 N.ar    1  UNL1       -0.2241
     14 C         139.5846  138.8790  162.6998 C.ar    1  UNL1        0.0161
     15 C         139.8136  137.6560  163.5374 C.ar    1  UNL1        0.0011
     16 C         139.3494  137.6259  164.9635 C.ar    1  UNL1       -0.0042
     17 C         138.6562  138.8188  165.5519 C.ar    1  UNL1       -0.0225
     18 C         138.4272  140.0419  164.7142 C.ar    1  UNL1       -0.0042
     19 C         138.8913  140.0720  163.2882 C.ar    1  UNL1        0.0011
     20 C         138.1921  138.7888  166.9779 C.3     1  UNL1        0.0224
     21 C         137.0890  137.8589  167.3881 C.3     1  UNL1        0.0047
     22 C         138.8311  139.6887  167.9938 C.3     1  UNL1        0.0047
     23 C         139.6750  138.4480  157.4380 C.3     1  UNL1        0.1004
     24 N         138.7216  139.3800  156.7506 N.3     1  UNL1       -0.2646
     25 C         138.1519  140.5521  157.4933 C.3     1  UNL1        0.1049
     26 C         137.1985  141.4840  156.8059 C.3     1  UNL1        0.1595
     27 O         136.8148  141.2438  155.3758 O.3     1  UNL1       -0.3508
     28 C         137.3845  140.0718  154.6331 C.3     1  UNL1        0.1595
     29 C         138.3379  139.1398  155.3205 C.3     1  UNL1        0.1049
@<TRIPOS>BOND
     1     1     2    1
     2     2     3   ar
     3     3    23    1
     4    23    24    1
     5    24    25    1
     6    25    26    1
     7    26    27    1
     8    27    28    1
     9    28    29    1
    10     3     4   ar
    11     4     5   ar
    12     5    14    1
    13    14    15   ar
    14    15    16   ar
    15    16    17   ar
    16    17    20    1
    17    20    21    1
    18    20    22    1
    19    17    18   ar
    20    18    19   ar
    21     5     6   ar
    22     6     7    1
    23     7     8   ar
    24     8     9   ar
    25     9    10   ar
    26    10    11    1
    27    10    12   ar
    28    12    13   ar
    29     6     2   ar
    30    13     7   ar
    31    29    24    1
    32    19    14   ar
@<TRIPOS>MOLECULE
*****
 29 32 0 0 0
SMALL
GASTEIGER

@<TRIPOS>ATOM
      1 C         140.7836  139.8793  166.9461 C.3     1  UNL1        0.0501
      2 C         141.3225  140.9746  166.0744 C.ar    1  UNL1        0.0404
      3 C         142.3226  142.0152  166.4829 C.ar    1  UNL1        0.0074
      4 C         142.5741  142.9053  165.3020 C.ar    1  UNL1        0.0158
      5 C         141.7293  142.4148  164.1636 C.ar    1  UNL1        0.0647
      6 N         140.9558  141.2216  164.6410 N.ar    1  UNL1       -0.2957
      7 C         139.9858  140.4167  163.8278 C.ar    1  UNL1        0.1476
      8 C         138.6784  141.0196  163.4069 C.ar    1  UNL1        0.0397
      9 C         137.7084  140.2148  162.5936 C.ar    1  UNL1        0.0343
     10 C         138.0459  138.8068  162.2013 C.ar    1  UNL1        0.1593
     11 F         137.0760  138.0019  161.3881 F       1  UNL1       -0.2025
     12 C         139.3533  138.2038  162.6222 C.ar    1  UNL1        0.1300
     13 N         140.3232  139.0088  163.4355 N.ar    1  UNL1       -0.2241
     14 C         141.6687  143.0126  162.7892 C.ar    1  UNL1        0.0161
     15 C         142.3587  142.3322  161.6443 C.ar    1  UNL1        0.0011
     16 C         142.2981  142.9300  160.2700 C.ar    1  UNL1       -0.0042
     17 C         141.5476  144.2082  160.0405 C.ar    1  UNL1       -0.0225
     18 C         140.8575  144.8887  161.1854 C.ar    1  UNL1       -0.0042
     19 C         140.9181  144.2909  162.5597 C.ar    1  UNL1        0.0011
     20 C         141.4870  144.8060  158.6661 C.3     1  UNL1        0.0224
     21 C         140.3619  145.7270  158.2977 C.3     1  UNL1        0.0047
     22 C         142.5516  144.4828  157.6600 C.3     1  UNL1        0.0047
     23 C         142.9595  142.1431  167.8349 C.3     1  UNL1        0.1004
     24 N         142.1039  142.1820  169.0664 N.3     1  UNL1       -0.2646
     25 C         142.4343  141.3045  170.2372 C.3     1  UNL1        0.1049
     26 C         141.5787  141.3434  171.4686 C.3     1  UNL1        0.1595
     27 O         140.3927  142.2597  171.5292 O.3     1  UNL1       -0.3508
     28 C         140.0622  143.1371  170.3584 C.3     1  UNL1        0.1595
     29 C         140.9178  143.0983  169.1270 C.3     1  UNL1        0.1049
@<TRIPOS>BOND
     1     1     2    1
     2     2     3   ar
     3     3    23    1
     4    23    24    1
     5    24    25    1
     6    25    26    1
     7    26    27    1
     8    27    28    1
     9    28    29    1
    10     3     4   ar
    11     4     5   ar
    12     5    14    1
    13    14    15   ar
    14    15    16   ar
    15    16    17   ar
    16    17    20    1
    17    20    21    1
    18    20    22    1
    19    17    18   ar
    20    18    19   ar
    21     5     6   ar
    22     6     7    1
    23     7     8   ar
    24     8     9   ar
    25     9    10   ar
    26    10    11    1
    27    10    12   ar
    28    12    13   ar
    29     6     2   ar
    30    13     7   ar
    31    29    24    1
    32    19    14   ar
@<TRIPOS>MOLECULE
*****
 29 32 0 0 0
SMALL
GASTEIGER

@<TRIPOS>ATOM
      1 C         141.1361  144.9036  158.7538 C.3     1  UNL1        0.0501
      2 C         140.3473  143.8441  159.4645 C.ar    1  UNL1        0.0404
      3 C         139.2538  143.0091  158.8671 C.ar    1  UNL1        0.0074
      4 C         138.7443  142.0825  159.9309 C.ar    1  UNL1        0.0158
      5 C         139.5229  142.3447  161.1859 C.ar    1  UNL1        0.0647
      6 N         140.5137  143.4335  160.8976 N.ar    1  UNL1       -0.2957
      7 C         141.4980  144.0103  161.8715 C.ar    1  UNL1        0.1476
      8 C         141.0251  144.9225  162.9643 C.ar    1  UNL1        0.0397
      9 C         142.0093  145.4994  163.9383 C.ar    1  UNL1        0.0343
     10 C         143.4665  145.1641  163.8193 C.ar    1  UNL1        0.1593
     11 F         144.4508  145.7409  164.7932 F       1  UNL1       -0.2025
     12 C         143.9394  144.2519  162.7265 C.ar    1  UNL1        0.1300
     13 N         142.9551  143.6750  161.7526 N.ar    1  UNL1       -0.2241
     14 C         139.3425  141.6417  162.4985 C.ar    1  UNL1        0.0161
     15 C         140.2442  140.5017  162.8690 C.ar    1  UNL1        0.0011
     16 C         140.0637  139.7987  164.1817 C.ar    1  UNL1       -0.0042
     17 C         138.9816  140.2356  165.1239 C.ar    1  UNL1       -0.0225
     18 C         138.0799  141.3757  164.7536 C.ar    1  UNL1       -0.0042
     19 C         138.2603  142.0787  163.4409 C.ar    1  UNL1        0.0011
     20 C         138.8012  139.5326  166.4366 C.3     1  UNL1        0.0224
     21 C         139.5658  139.9896  167.6434 C.3     1  UNL1        0.0047
     22 C         137.8561  138.3726  166.5425 C.3     1  UNL1        0.0047
     23 C         138.7570  143.0871  157.4539 C.3     1  UNL1        0.1004
     24 N         138.2223  141.8594  156.7780 N.3     1  UNL1       -0.2646
     25 C         139.1503  140.7375  156.4173 C.3     1  UNL1        0.1049
     26 C         138.6156  139.5098  155.7414 C.3     1  UNL1        0.1595
     27 O         137.1530  139.4040  155.4262 O.3     1  UNL1       -0.3508
     28 C         136.2250  140.5259  155.7869 C.3     1  UNL1        0.1595
     29 C         136.7597  141.7536  156.4628 C.3     1  UNL1        0.1049
@<TRIPOS>BOND
     1     1     2    1
     2     2     3   ar
     3     3    23    1
     4    23    24    1
     5    24    25    1
     6    25    26    1
     7    26    27    1
     8    27    28    1
     9    28    29    1
    10     3     4   ar
    11     4     5   ar
    12     5    14    1
    13    14    15   ar
    14    15    16   ar
    15    16    17   ar
    16    17    20    1
    17    20    21    1
    18    20    22    1
    19    17    18   ar
    20    18    19   ar
    21     5     6   ar
    22     6     7    1
    23     7     8   ar
    24     8     9   ar
    25     9    10   ar
    26    10    11    1
    27    10    12   ar
    28    12    13   ar
    29     6     2   ar
    30    13     7   ar
    31    29    24    1
    32    19    14   ar
@<TRIPOS>MOLECULE
*****
 29 32 0 0 0
SMALL
GASTEIGER

@<TRIPOS>ATOM
      1 C         139.3432  143.3528  157.9695 C.3     1  UNL1        0.0501
      2 C         138.8656  142.2432  158.8586 C.ar    1  UNL1        0.0404
      3 C         138.0914  141.0348  158.4222 C.ar    1  UNL1        0.0074
      4 C         137.8258  140.1919  159.6343 C.ar    1  UNL1        0.0158
      5 C         138.4358  140.8793  160.8197 C.ar    1  UNL1        0.0647
      6 N         139.0785  142.1471  160.3403 N.ar    1  UNL1       -0.2957
      7 C         139.8062  143.1438  161.1930 C.ar    1  UNL1        0.1476
      8 C         141.2021  142.8543  161.6595 C.ar    1  UNL1        0.0397
      9 C         141.9299  143.8509  162.5122 C.ar    1  UNL1        0.0343
     10 C         141.2617  145.1372  162.8984 C.ar    1  UNL1        0.1593
     11 F         141.9894  146.1339  163.7510 F       1  UNL1       -0.2025
     12 C         139.8658  145.4268  162.4318 C.ar    1  UNL1        0.1300
     13 N         139.1380  144.4301  161.5792 N.ar    1  UNL1       -0.2241
     14 C         138.4080  140.3857  162.2359 C.ar    1  UNL1        0.0161
     15 C         138.0291  141.3183  163.3479 C.ar    1  UNL1        0.0011
     16 C         138.0013  140.8246  164.7641 C.ar    1  UNL1       -0.0042
     17 C         138.3524  139.3984  165.0682 C.ar    1  UNL1       -0.0225
     18 C         138.7313  138.4658  163.9562 C.ar    1  UNL1       -0.0042
     19 C         138.7591  138.9594  162.5400 C.ar    1  UNL1        0.0011
     20 C         138.3246  138.9048  166.4844 C.3     1  UNL1        0.0224
     21 C         137.5213  137.6888  166.8391 C.3     1  UNL1        0.0047
     22 C         139.1001  139.6272  167.5458 C.3     1  UNL1        0.0047
     23 C         137.6589  140.7240  157.0200 C.3     1  UNL1        0.1004
     24 N         138.2175  139.5259  156.3110 N.3     1  UNL1       -0.2646
     25 C         139.4528  138.8540  156.8328 C.3     1  UNL1        0.1049
     26 C         140.0114  137.6560  156.1238 C.3     1  UNL1        0.1595
     27 O         139.3345  137.1298  154.8930 O.3     1  UNL1       -0.3508
     28 C         138.0991  137.8017  154.3712 C.3     1  UNL1        0.1595
     29 C         137.5406  138.9997  155.0802 C.3     1  UNL1        0.1049
@<TRIPOS>BOND
     1     1     2    1
     2     2     3   ar
     3     3    23    1
     4    23    24    1
     5    24    25    1
     6    25    26    1
     7    26    27    1
     8    27    28    1
     9    28    29    1
    10     3     4   ar
    11     4     5   ar
    12     5    14    1
    13    14    15   ar
    14    15    16   ar
    15    16    17   ar
    16    17    20    1
    17    20    21    1
    18    20    22    1
    19    17    18   ar
    20    18    19   ar
    21     5     6   ar
    22     6     7    1
    23     7     8   ar
    24     8     9   ar
    25     9    10   ar
    26    10    11    1
    27    10    12   ar
    28    12    13   ar
    29     6     2   ar
    30    13     7   ar
    31    29    24    1
    32    19    14   ar
@<TRIPOS>MOLECULE
*****
 29 32 0 0 0
SMALL
GASTEIGER

@<TRIPOS>ATOM
      1 C         138.7866  140.5781  158.0583 C.3     1  UNL1        0.0501
      2 C         139.7397  139.8349  158.9467 C.ar    1  UNL1        0.0404
      3 C         140.6397  138.7101  158.5288 C.ar    1  UNL1        0.0074
      4 C         141.4164  138.2661  159.7328 C.ar    1  UNL1        0.0158
      5 C         140.9965  139.1166  160.8949 C.ar    1  UNL1        0.0647
      6 N         139.9602  140.0862  160.4090 N.ar    1  UNL1       -0.2957
      7 C         139.2662  141.1247  161.2396 C.ar    1  UNL1        0.1476
      8 C         138.1533  140.7259  162.1629 C.ar    1  UNL1        0.0397
      9 C         137.4593  141.7643  162.9935 C.ar    1  UNL1        0.0343
     10 C         137.8782  143.2017  162.9009 C.ar    1  UNL1        0.1593
     11 F         137.1843  144.2402  163.7315 F       1  UNL1       -0.2025
     12 C         138.9911  143.6005  161.9776 C.ar    1  UNL1        0.1300
     13 N         139.6851  142.5620  161.1470 N.ar    1  UNL1       -0.2241
     14 C         141.5207  139.0152  162.2966 C.ar    1  UNL1        0.0161
     15 C         141.1749  137.8259  163.1425 C.ar    1  UNL1        0.0011
     16 C         141.6992  137.7245  164.5442 C.ar    1  UNL1       -0.0042
     17 C         142.5692  138.8126  165.1000 C.ar    1  UNL1       -0.0225
     18 C         142.9150  140.0021  164.2541 C.ar    1  UNL1       -0.0042
     19 C         142.3908  140.1034  162.8524 C.ar    1  UNL1        0.0011
     20 C         143.0934  138.7113  166.5018 C.3     1  UNL1        0.0224
     21 C         142.5819  139.6399  167.5628 C.3     1  UNL1        0.0047
     22 C         144.1293  137.6812  166.8425 C.3     1  UNL1        0.0047
     23 C         140.7446  138.1309  157.1491 C.3     1  UNL1        0.1004
     24 N         142.0864  137.7565  156.5929 N.3     1  UNL1       -0.2646
     25 C         142.9787  138.8130  156.0117 C.3     1  UNL1        0.1049
     26 C         144.3204  138.4386  155.4555 C.3     1  UNL1        0.1595
     27 O         144.7700  137.0078  155.4804 O.3     1  UNL1       -0.3508
     28 C         143.8777  135.9513  156.0615 C.3     1  UNL1        0.1595
     29 C         142.5360  136.3257  156.6177 C.3     1  UNL1        0.1049
@<TRIPOS>BOND
     1     1     2    1
     2     2     3   ar
     3     3    23    1
     4    23    24    1
     5    24    25    1
     6    25    26    1
     7    26    27    1
     8    27    28    1
     9    28    29    1
    10     3     4   ar
    11     4     5   ar
    12     5    14    1
    13    14    15   ar
    14    15    16   ar
    15    16    17   ar
    16    17    20    1
    17    20    21    1
    18    20    22    1
    19    17    18   ar
    20    18    19   ar
    21     5     6   ar
    22     6     7    1
    23     7     8   ar
    24     8     9   ar
    25     9    10   ar
    26    10    11    1
    27    10    12   ar
    28    12    13   ar
    29     6     2   ar
    30    13     7   ar
    31    29    24    1
    32    19    14   ar
