@<TRIPOS>MOLECULE
*****
 36 39 0 0 0
SMALL
GASTEIGER

@<TRIPOS>ATOM
      1 N         141.5628  144.5241  161.6795 N.3     1  UNL1       -0.2653
      2 C         142.1279  144.7812  163.0449 C.3     1  UNL1        0.1036
      3 C         143.0859  143.8024  163.6566 C.3     1  UNL1        0.1470
      4 C         144.0439  142.8235  164.2683 C.3     1  UNL1        0.1035
      5 N         144.4368  141.5876  163.5145 N.3     1  UNL1       -0.2685
      6 C         143.8716  141.3306  162.1490 C.3     1  UNL1        0.1035
      7 C         142.9136  142.3094  161.5373 C.3     1  UNL1        0.1470
      8 C         141.9556  143.2882  160.9257 C.3     1  UNL1        0.1036
      9 O         143.4787  142.5665  162.9028 O.3     1  UNL1       -0.3530
     10 C         140.6048  145.5030  161.0678 C.3     1  UNL1        0.1202
     11 C         139.5519  146.1521  161.9163 C.3     1  UNL1        0.2228
     12 O         138.2570  145.4418  162.1788 O.3     1  UNL1       -0.4717
     13 C         138.2466  141.5335  164.4093 C.ar    1  UNL1        0.0709
     14 C         137.8279  141.5765  162.9695 C.ar    1  UNL1        0.0135
     15 C         137.8314  142.8793  162.2261 C.ar    1  UNL1        0.0399
     16 C         138.2535  144.1390  162.9223 C.ar    1  UNL1        0.1659
     17 C         138.6722  144.0961  164.3620 C.ar    1  UNL1        0.1745
     18 F         139.0944  145.3558  165.0582 F       1  UNL1       -0.2009
     19 C         138.6688  142.7933  165.1056 C.ar    1  UNL1        0.0430
     20 N         138.2397  138.9280  165.8963 N.1     1  UNL1       -0.1908
     21 C         138.2431  140.2308  165.1528 C.1     1  UNL1        0.1005
     22 C         145.3947  140.6088  164.1261 C.3     1  UNL1        0.0737
     23 C         144.9570  139.1996  164.3959 C.3     1  UNL1        0.0362
     24 C         143.6026  138.9345  164.9834 C.3     1  UNL1        0.0929
     25 N         143.4661  138.6285  166.4455 N.3     1  UNL1       -0.1793
     26 H         144.4057  138.6577  166.8414 H       1  UNL1        0.1488
     27 S         142.6027  139.4934  167.3153 S.O2    1  UNL1        0.0602
     28 O         142.0760  140.1926  166.0973 O.2     1  UNL1       -0.1530
     29 O         143.1293  138.7941  168.5334 O.2     1  UNL1       -0.1530
     30 C         141.7392  140.3582  168.1851 C.ar    1  UNL1        0.1221
     31 C         141.2314  139.8340  169.4955 C.ar    1  UNL1        0.0222
     32 C         140.3679  140.6988  170.3654 C.ar    1  UNL1        0.0310
     33 C         140.0124  142.0878  169.9248 C.ar    1  UNL1        0.1402
     34 F         139.1489  142.9526  170.7945 F       1  UNL1       -0.2042
     35 C         140.5203  142.6120  168.6143 C.ar    1  UNL1        0.0310
     36 C         141.3837  141.7472  167.7445 C.ar    1  UNL1        0.0222
@<TRIPOS>BOND
     1    20    21    3
     2    21    13    1
     3    13    14   ar
     4    14    15   ar
     5    15    16   ar
     6    16    12    1
     7    12    11    1
     8    11    10    1
     9    10     1    1
    10     1     2    1
    11     2     3    1
    12     3     4    1
    13     4     5    1
    14     5    22    1
    15    22    23    1
    16    23    24    1
    17    24    25    1
    18    25    27    1
    19    27    28    2
    20    27    29    2
    21    27    30    1
    22    30    31   ar
    23    31    32   ar
    24    32    33   ar
    25    33    34    1
    26    33    35   ar
    27    35    36   ar
    28     5     6    1
    29     6     7    1
    30     7     8    1
    31     7     9    1
    32    16    17   ar
    33    17    18    1
    34    17    19   ar
    35    19    13   ar
    36     8     1    1
    37     9     3    1
    38    36    30   ar
    39    25    26    1
@<TRIPOS>MOLECULE
*****
 36 39 0 0 0
SMALL
GASTEIGER

@<TRIPOS>ATOM
      1 N         139.1548  140.8870  165.6359 N.3     1  UNL1       -0.2653
      2 C         140.1832  141.9348  165.9432 C.3     1  UNL1        0.1036
      3 C         140.2593  143.1786  165.1084 C.3     1  UNL1        0.1470
      4 C         140.3354  144.4225  164.2735 C.3     1  UNL1        0.1035
      5 N         139.3831  144.6186  163.1312 N.3     1  UNL1       -0.2685
      6 C         138.3546  143.5707  162.8239 C.3     1  UNL1        0.1035
      7 C         138.2786  142.3269  163.6588 C.3     1  UNL1        0.1470
      8 C         138.2025  141.0830  164.4937 C.3     1  UNL1        0.1036
      9 O         139.3070  143.3746  163.9661 O.3     1  UNL1       -0.3530
     10 C         139.0787  139.6431  166.4708 C.3     1  UNL1        0.1202
     11 C         138.2002  138.5051  166.0427 C.3     1  UNL1        0.2228
     12 O         138.7833  137.3546  165.2769 O.3     1  UNL1       -0.4717
     13 C         140.8046  138.0778  161.3220 C.ar    1  UNL1        0.0709
     14 C         139.3177  138.2343  161.4441 C.ar    1  UNL1        0.0135
     15 C         138.6440  137.9932  162.7624 C.ar    1  UNL1        0.0399
     16 C         139.4570  137.5956  163.9586 C.ar    1  UNL1        0.1659
     17 C         140.9438  137.4391  163.8365 C.ar    1  UNL1        0.1745
     18 F         141.7568  137.0415  165.0328 F       1  UNL1       -0.2009
     19 C         141.6176  137.6802  162.5182 C.ar    1  UNL1        0.0430
     20 N         142.1521  138.5599  158.6855 N.1     1  UNL1       -0.1908
     21 C         141.4784  138.3188  160.0037 C.1     1  UNL1        0.1005
     22 C         139.4592  145.8624  162.2964 C.3     1  UNL1        0.0737
     23 C         140.1099  145.8203  160.9455 C.3     1  UNL1        0.0362
     24 C         141.1056  144.7450  160.6258 C.3     1  UNL1        0.0929
     25 N         142.5034  144.8335  161.1629 N.3     1  UNL1       -0.1793
     26 H         142.5290  145.6410  161.7855 H       1  UNL1        0.1488
     27 S         143.0887  143.6810  161.9241 S.O2    1  UNL1        0.0602
     28 O         144.2140  144.5583  162.3867 O.2     1  UNL1       -0.1530
     29 O         141.9634  142.8038  161.4614 O.2     1  UNL1       -0.1530
     30 C         143.6741  142.5287  162.6852 C.ar    1  UNL1        0.1221
     31 C         142.7853  141.4233  163.1732 C.ar    1  UNL1        0.0222
     32 C         143.3706  140.2709  163.9344 C.ar    1  UNL1        0.0310
     33 C         144.8448  140.2239  164.2076 C.ar    1  UNL1        0.1402
     34 F         145.4302  139.0715  164.9687 F       1  UNL1       -0.2042
     35 C         145.7336  141.3293  163.7195 C.ar    1  UNL1        0.0310
     36 C         145.1483  142.4817  162.9584 C.ar    1  UNL1        0.0222
@<TRIPOS>BOND
     1    20    21    3
     2    21    13    1
     3    13    14   ar
     4    14    15   ar
     5    15    16   ar
     6    16    12    1
     7    12    11    1
     8    11    10    1
     9    10     1    1
    10     1     2    1
    11     2     3    1
    12     3     4    1
    13     4     5    1
    14     5    22    1
    15    22    23    1
    16    23    24    1
    17    24    25    1
    18    25    27    1
    19    27    28    2
    20    27    29    2
    21    27    30    1
    22    30    31   ar
    23    31    32   ar
    24    32    33   ar
    25    33    34    1
    26    33    35   ar
    27    35    36   ar
    28     5     6    1
    29     6     7    1
    30     7     8    1
    31     7     9    1
    32    16    17   ar
    33    17    18    1
    34    17    19   ar
    35    19    13   ar
    36     8     1    1
    37     9     3    1
    38    36    30   ar
    39    25    26    1
@<TRIPOS>MOLECULE
*****
 36 39 0 0 0
SMALL
GASTEIGER

@<TRIPOS>ATOM
      1 N         142.1912  138.4809  163.7856 N.3     1  UNL1       -0.2653
      2 C         142.1138  139.9661  163.5898 C.3     1  UNL1        0.1036
      3 C         141.6936  140.5267  162.2635 C.3     1  UNL1        0.1470
      4 C         141.2733  141.0875  160.9372 C.3     1  UNL1        0.1035
      5 N         140.9304  140.1631  159.8068 N.3     1  UNL1       -0.2685
      6 C         141.0078  138.6779  160.0027 C.3     1  UNL1        0.1035
      7 C         141.4280  138.1172  161.3289 C.3     1  UNL1        0.1470
      8 C         141.8483  137.5565  162.6552 C.3     1  UNL1        0.1036
      9 O         141.3507  139.6023  161.1331 O.3     1  UNL1       -0.3530
     10 C         142.6115  137.9202  165.1119 C.3     1  UNL1        0.1202
     11 C         143.5683  138.6829  165.9794 C.3     1  UNL1        0.2228
     12 O         143.4646  138.5893  167.4730 O.3     1  UNL1       -0.4717
     13 C         140.8589  141.4794  169.7331 C.ar    1  UNL1        0.0709
     14 C         141.2662  141.7825  168.3216 C.ar    1  UNL1        0.0135
     15 C         142.1348  140.8192  167.5682 C.ar    1  UNL1        0.0399
     16 C         142.5960  139.5526  168.2263 C.ar    1  UNL1        0.1659
     17 C         142.1888  139.2495  169.6377 C.ar    1  UNL1        0.1745
     18 F         142.6501  137.9829  170.2958 F       1  UNL1       -0.2009
     19 C         141.3202  140.2128  170.3912 C.ar    1  UNL1        0.0430
     20 N         139.1219  143.4061  171.2397 N.1     1  UNL1       -0.1908
     21 C         139.9904  142.4427  170.4864 C.1     1  UNL1        0.1005
     22 C         140.5101  140.7237  158.4806 C.3     1  UNL1        0.0737
     23 C         139.0534  140.8949  158.1663 C.3     1  UNL1        0.0362
     24 C         138.0650  141.0951  159.2767 C.3     1  UNL1        0.0929
     25 N         137.5737  139.9172  160.0647 N.3     1  UNL1       -0.1793
     26 H         137.9730  139.0851  159.6304 H       1  UNL1        0.1488
     27 S         137.8664  139.8222  161.5328 S.O2    1  UNL1        0.0602
     28 O         137.9709  141.3166  161.6087 O.2     1  UNL1       -0.1530
     29 O         137.7619  138.3278  161.4570 O.2     1  UNL1       -0.1530
     30 C         138.1591  139.7272  163.0009 C.ar    1  UNL1        0.1221
     31 C         138.5226  138.4052  163.6092 C.ar    1  UNL1        0.0222
     32 C         138.8153  138.3102  165.0773 C.ar    1  UNL1        0.0310
     33 C         138.7445  139.5373  165.9371 C.ar    1  UNL1        0.1402
     34 F         139.0372  139.4423  167.4052 F       1  UNL1       -0.2042
     35 C         138.3810  140.8594  165.3288 C.ar    1  UNL1        0.0310
     36 C         138.0883  140.9543  163.8607 C.ar    1  UNL1        0.0222
@<TRIPOS>BOND
     1    20    21    3
     2    21    13    1
     3    13    14   ar
     4    14    15   ar
     5    15    16   ar
     6    16    12    1
     7    12    11    1
     8    11    10    1
     9    10     1    1
    10     1     2    1
    11     2     3    1
    12     3     4    1
    13     4     5    1
    14     5    22    1
    15    22    23    1
    16    23    24    1
    17    24    25    1
    18    25    27    1
    19    27    28    2
    20    27    29    2
    21    27    30    1
    22    30    31   ar
    23    31    32   ar
    24    32    33   ar
    25    33    34    1
    26    33    35   ar
    27    35    36   ar
    28     5     6    1
    29     6     7    1
    30     7     8    1
    31     7     9    1
    32    16    17   ar
    33    17    18    1
    34    17    19   ar
    35    19    13   ar
    36     8     1    1
    37     9     3    1
    38    36    30   ar
    39    25    26    1
@<TRIPOS>MOLECULE
*****
 36 39 0 0 0
SMALL
GASTEIGER

@<TRIPOS>ATOM
      1 N         140.3004  137.8346  162.9556 N.3     1  UNL1       -0.2653
      2 C         138.9064  138.3774  163.0665 C.3     1  UNL1        0.1036
      3 C         138.2497  139.0070  161.8740 C.3     1  UNL1        0.1470
      4 C         137.5928  139.6366  160.6814 C.3     1  UNL1        0.1035
      5 N         138.3300  139.7234  159.3779 N.3     1  UNL1       -0.2685
      6 C         139.7240  139.1806  159.2670 C.3     1  UNL1        0.1035
      7 C         140.3808  138.5510  160.4596 C.3     1  UNL1        0.1470
      8 C         141.0375  137.9215  161.6521 C.3     1  UNL1        0.1036
      9 O         138.9868  139.0938  160.5705 O.3     1  UNL1       -0.3530
     10 C         140.9572  137.2050  164.1482 C.3     1  UNL1        0.1202
     11 C         142.0470  137.9344  164.8764 C.3     1  UNL1        0.2228
     12 O         141.9526  139.4180  165.0766 O.3     1  UNL1       -0.4717
     13 C         141.1241  141.0877  169.1724 C.ar    1  UNL1        0.0709
     14 C         142.1810  140.0391  168.9896 C.ar    1  UNL1        0.0135
     15 C         142.4572  139.4825  167.6243 C.ar    1  UNL1        0.0399
     16 C         141.6765  139.9745  166.4418 C.ar    1  UNL1        0.1659
     17 C         140.6196  141.0231  166.6245 C.ar    1  UNL1        0.1745
     18 F         139.8388  141.5151  165.4420 F       1  UNL1       -0.2009
     19 C         140.3434  141.5797  167.9898 C.ar    1  UNL1        0.0430
     20 N         140.5718  142.2007  171.9029 N.1     1  UNL1       -0.1908
     21 C         140.8479  141.6442  170.5376 C.1     1  UNL1        0.1005
     22 C         137.6732  140.3530  158.1853 C.3     1  UNL1        0.0737
     23 C         138.2300  141.6185  157.6034 C.3     1  UNL1        0.0362
     24 C         138.5684  142.7715  158.5012 C.3     1  UNL1        0.0929
     25 N         139.6587  142.6323  159.5219 N.3     1  UNL1       -0.1793
     26 H         140.4755  143.1154  159.1480 H       1  UNL1        0.1488
     27 S         139.4515  143.1470  160.9156 S.O2    1  UNL1        0.0602
     28 O         140.9299  143.0795  161.1602 O.2     1  UNL1       -0.1530
     29 O         137.9732  143.2145  160.6710 O.2     1  UNL1       -0.1530
     30 C         139.2444  143.6617  162.3092 C.ar    1  UNL1        0.1221
     31 C         137.8940  143.5585  162.9538 C.ar    1  UNL1        0.0222
     32 C         137.6868  144.0732  164.3475 C.ar    1  UNL1        0.0310
     33 C         138.8302  144.6911  165.0965 C.ar    1  UNL1        0.1402
     34 F         138.6231  145.2058  166.4900 F       1  UNL1       -0.2042
     35 C         140.1807  144.7942  164.4518 C.ar    1  UNL1        0.0310
     36 C         140.3878  144.2795  163.0582 C.ar    1  UNL1        0.0222
@<TRIPOS>BOND
     1    20    21    3
     2    21    13    1
     3    13    14   ar
     4    14    15   ar
     5    15    16   ar
     6    16    12    1
     7    12    11    1
     8    11    10    1
     9    10     1    1
    10     1     2    1
    11     2     3    1
    12     3     4    1
    13     4     5    1
    14     5    22    1
    15    22    23    1
    16    23    24    1
    17    24    25    1
    18    25    27    1
    19    27    28    2
    20    27    29    2
    21    27    30    1
    22    30    31   ar
    23    31    32   ar
    24    32    33   ar
    25    33    34    1
    26    33    35   ar
    27    35    36   ar
    28     5     6    1
    29     6     7    1
    30     7     8    1
    31     7     9    1
    32    16    17   ar
    33    17    18    1
    34    17    19   ar
    35    19    13   ar
    36     8     1    1
    37     9     3    1
    38    36    30   ar
    39    25    26    1
@<TRIPOS>MOLECULE
*****
 36 39 0 0 0
SMALL
GASTEIGER

@<TRIPOS>ATOM
      1 N         142.4141  139.7584  163.0942 N.3     1  UNL1       -0.2653
      2 C         143.2476  140.9812  163.3392 C.3     1  UNL1        0.1036
      3 C         142.9968  142.2305  162.5479 C.3     1  UNL1        0.1470
      4 C         142.7461  143.4800  161.7567 C.3     1  UNL1        0.1035
      5 N         141.6618  143.5066  160.7205 N.3     1  UNL1       -0.2685
      6 C         140.8283  142.2837  160.4755 C.3     1  UNL1        0.1035
      7 C         141.0791  141.0343  161.2668 C.3     1  UNL1        0.1470
      8 C         141.3299  139.7850  162.0580 C.3     1  UNL1        0.1036
      9 O         141.9126  142.2571  161.5117 O.3     1  UNL1       -0.3530
     10 C         142.6648  138.5089  163.8855 C.3     1  UNL1        0.1202
     11 C         142.3378  138.4696  165.3488 C.3     1  UNL1        0.2228
     12 O         143.0668  139.3668  166.3047 O.3     1  UNL1       -0.4717
     13 C         140.7596  141.8512  169.2634 C.ar    1  UNL1        0.0709
     14 C         140.5451  140.3679  169.2010 C.ar    1  UNL1        0.0135
     15 C         141.3142  139.5398  168.2147 C.ar    1  UNL1        0.0399
     16 C         142.2977  140.1949  167.2909 C.ar    1  UNL1        0.1659
     17 C         142.5122  141.6782  167.3533 C.ar    1  UNL1        0.1745
     18 F         143.4957  142.3333  166.4295 F       1  UNL1       -0.2009
     19 C         141.7431  142.5063  168.3396 C.ar    1  UNL1        0.0430
     20 N         139.2214  143.5074  171.2359 N.1     1  UNL1       -0.1908
     21 C         139.9905  142.6793  170.2497 C.1     1  UNL1        0.1005
     22 C         141.4111  144.7560  159.9292 C.3     1  UNL1        0.0737
     23 C         140.2973  145.6812  160.3213 C.3     1  UNL1        0.0362
     24 C         139.9801  145.9010  161.7708 C.3     1  UNL1        0.0929
     25 N         138.6960  145.3798  162.3448 N.3     1  UNL1       -0.1793
     26 H         138.0129  145.3812  161.5874 H       1  UNL1        0.1488
     27 S         138.6514  144.0151  162.9658 S.O2    1  UNL1        0.0602
     28 O         139.5208  144.4977  164.0888 O.2     1  UNL1       -0.1530
     29 O         137.7821  143.5324  161.8427 O.2     1  UNL1       -0.1530
     30 C         138.6069  142.6504  163.5867 C.ar    1  UNL1        0.1221
     31 C         139.3980  142.3655  164.8289 C.ar    1  UNL1        0.0222
     32 C         139.3534  141.0007  165.4499 C.ar    1  UNL1        0.0310
     33 C         138.5178  139.9210  164.8287 C.ar    1  UNL1        0.1402
     34 F         138.4732  138.5563  165.4497 F       1  UNL1       -0.2042
     35 C         137.7267  140.2060  163.5865 C.ar    1  UNL1        0.0310
     36 C         137.7712  141.5707  162.9655 C.ar    1  UNL1        0.0222
@<TRIPOS>BOND
     1    20    21    3
     2    21    13    1
     3    13    14   ar
     4    14    15   ar
     5    15    16   ar
     6    16    12    1
     7    12    11    1
     8    11    10    1
     9    10     1    1
    10     1     2    1
    11     2     3    1
    12     3     4    1
    13     4     5    1
    14     5    22    1
    15    22    23    1
    16    23    24    1
    17    24    25    1
    18    25    27    1
    19    27    28    2
    20    27    29    2
    21    27    30    1
    22    30    31   ar
    23    31    32   ar
    24    32    33   ar
    25    33    34    1
    26    33    35   ar
    27    35    36   ar
    28     5     6    1
    29     6     7    1
    30     7     8    1
    31     7     9    1
    32    16    17   ar
    33    17    18    1
    34    17    19   ar
    35    19    13   ar
    36     8     1    1
    37     9     3    1
    38    36    30   ar
    39    25    26    1
@<TRIPOS>MOLECULE
*****
 36 39 0 0 0
SMALL
GASTEIGER

@<TRIPOS>ATOM
      1 N         139.3409  138.9474  161.9913 N.3     1  UNL1       -0.2653
      2 C         138.3196  140.0415  162.0895 C.3     1  UNL1        0.1036
      3 C         138.3715  141.2032  161.1420 C.3     1  UNL1        0.1470
      4 C         138.4234  142.3649  160.1944 C.3     1  UNL1        0.1035
      5 N         139.4966  142.4323  159.1486 N.3     1  UNL1       -0.2685
      6 C         140.5179  141.3380  159.0504 C.3     1  UNL1        0.1035
      7 C         140.4660  140.1764  159.9980 C.3     1  UNL1        0.1470
      8 C         140.4141  139.0148  160.9455 C.3     1  UNL1        0.1036
      9 O         139.4447  141.2706  160.0962 O.3     1  UNL1       -0.3530
     10 C         139.2890  137.7857  162.9389 C.3     1  UNL1        0.1202
     11 C         140.1580  137.7757  164.1614 C.3     1  UNL1        0.2228
     12 O         140.8408  139.0349  164.6066 O.3     1  UNL1       -0.4717
     13 C         140.7713  140.2182  168.9477 C.ar    1  UNL1        0.0709
     14 C         142.0810  139.9815  168.2557 C.ar    1  UNL1        0.0135
     15 C         142.1041  139.5871  166.8087 C.ar    1  UNL1        0.0399
     16 C         140.8177  139.4293  166.0536 C.ar    1  UNL1        0.1659
     17 C         139.5081  139.6660  166.7456 C.ar    1  UNL1        0.1745
     18 F         138.2216  139.5082  165.9905 F       1  UNL1       -0.2009
     19 C         139.4848  140.0604  168.1927 C.ar    1  UNL1        0.0430
     20 N         140.7250  141.0070  171.8417 N.1     1  UNL1       -0.1908
     21 C         140.7482  140.6126  170.3947 C.1     1  UNL1        0.1005
     22 C         139.5485  143.5939  158.2010 C.3     1  UNL1        0.0737
     23 C         140.8374  144.3313  157.9884 C.3     1  UNL1        0.0362
     24 C         141.4758  145.0697  159.1273 C.3     1  UNL1        0.0929
     25 N         140.6198  145.7647  160.1442 N.3     1  UNL1       -0.1793
     26 H         139.6779  145.8091  159.7553 H       1  UNL1        0.1488
     27 S         140.4908  145.2000  161.5279 S.O2    1  UNL1        0.0602
     28 O         141.7747  144.4474  161.3404 O.2     1  UNL1       -0.1530
     29 O         139.2070  145.9527  161.7155 O.2     1  UNL1       -0.1530
     30 C         140.3619  144.6354  162.9115 C.ar    1  UNL1        0.1221
     31 C         139.0640  144.7575  163.6535 C.ar    1  UNL1        0.0222
     32 C         138.9351  144.1928  165.0372 C.ar    1  UNL1        0.0310
     33 C         140.1040  143.5060  165.6789 C.ar    1  UNL1        0.1402
     34 F         139.9751  142.9413  167.0625 F       1  UNL1       -0.2042
     35 C         141.4020  143.3839  164.9369 C.ar    1  UNL1        0.0310
     36 C         141.5309  143.9486  163.5533 C.ar    1  UNL1        0.0222
@<TRIPOS>BOND
     1    20    21    3
     2    21    13    1
     3    13    14   ar
     4    14    15   ar
     5    15    16   ar
     6    16    12    1
     7    12    11    1
     8    11    10    1
     9    10     1    1
    10     1     2    1
    11     2     3    1
    12     3     4    1
    13     4     5    1
    14     5    22    1
    15    22    23    1
    16    23    24    1
    17    24    25    1
    18    25    27    1
    19    27    28    2
    20    27    29    2
    21    27    30    1
    22    30    31   ar
    23    31    32   ar
    24    32    33   ar
    25    33    34    1
    26    33    35   ar
    27    35    36   ar
    28     5     6    1
    29     6     7    1
    30     7     8    1
    31     7     9    1
    32    16    17   ar
    33    17    18    1
    34    17    19   ar
    35    19    13   ar
    36     8     1    1
    37     9     3    1
    38    36    30   ar
    39    25    26    1
@<TRIPOS>MOLECULE
*****
 36 39 0 0 0
SMALL
GASTEIGER

@<TRIPOS>ATOM
      1 N         139.4907  137.8418  163.7959 N.3     1  UNL1       -0.2653
      2 C         140.9616  137.5916  163.6413 C.3     1  UNL1        0.1036
      3 C         141.6130  137.7539  162.3000 C.3     1  UNL1        0.1470
      4 C         142.2645  137.9162  160.9586 C.3     1  UNL1        0.1035
      5 N         141.4452  138.3288  159.7718 N.3     1  UNL1       -0.2685
      6 C         139.9742  138.5791  159.9265 C.3     1  UNL1        0.1035
      7 C         139.3228  138.4168  161.2678 C.3     1  UNL1        0.1470
      8 C         138.6713  138.2544  162.6091 C.3     1  UNL1        0.1036
      9 O         140.7936  138.1665  161.1132 O.3     1  UNL1       -0.3530
     10 C         138.8392  137.6795  165.1373 C.3     1  UNL1        0.1202
     11 C         138.3530  138.8851  165.8857 C.3     1  UNL1        0.2228
     12 O         139.2842  140.0317  166.1469 O.3     1  UNL1       -0.4717
     13 C         139.2171  143.6417  163.4612 C.ar    1  UNL1        0.0709
     14 C         137.9505  142.8855  163.7331 C.ar    1  UNL1        0.0135
     15 C         137.9729  141.6822  164.6284 C.ar    1  UNL1        0.0399
     16 C         139.2618  141.2350  165.2517 C.ar    1  UNL1        0.1659
     17 C         140.5284  141.9911  164.9798 C.ar    1  UNL1        0.1745
     18 F         141.8174  141.5439  165.6031 F       1  UNL1       -0.2009
     19 C         140.5061  143.1945  164.0845 C.ar    1  UNL1        0.0430
     20 N         139.1724  146.0483  161.6707 N.1     1  UNL1       -0.1908
     21 C         139.1948  144.8450  162.5659 C.1     1  UNL1        0.1005
     22 C         142.0966  138.4912  158.4305 C.3     1  UNL1        0.0737
     23 C         142.2091  139.8527  157.8112 C.3     1  UNL1        0.0362
     24 C         142.2547  141.0721  158.6836 C.3     1  UNL1        0.0929
     25 N         143.5755  141.6692  159.0694 N.3     1  UNL1       -0.1793
     26 H         143.7061  142.4963  158.4870 H       1  UNL1        0.1488
     27 S         143.8209  142.0946  160.4868 S.O2    1  UNL1        0.0602
     28 O         143.4014  143.4923  160.1399 O.2     1  UNL1       -0.1530
     29 O         144.2404  140.6968  160.8337 O.2     1  UNL1       -0.1530
     30 C         144.0663  142.5199  161.9041 C.ar    1  UNL1        0.1221
     31 C         143.7131  143.9105  162.3416 C.ar    1  UNL1        0.0222
     32 C         143.9585  144.3360  163.7590 C.ar    1  UNL1        0.0310
     33 C         144.5571  143.3708  164.7388 C.ar    1  UNL1        0.1402
     34 F         144.8025  143.7962  166.1561 F       1  UNL1       -0.2042
     35 C         144.9104  141.9802  164.3012 C.ar    1  UNL1        0.0310
     36 C         144.6650  141.5548  162.8839 C.ar    1  UNL1        0.0222
@<TRIPOS>BOND
     1    20    21    3
     2    21    13    1
     3    13    14   ar
     4    14    15   ar
     5    15    16   ar
     6    16    12    1
     7    12    11    1
     8    11    10    1
     9    10     1    1
    10     1     2    1
    11     2     3    1
    12     3     4    1
    13     4     5    1
    14     5    22    1
    15    22    23    1
    16    23    24    1
    17    24    25    1
    18    25    27    1
    19    27    28    2
    20    27    29    2
    21    27    30    1
    22    30    31   ar
    23    31    32   ar
    24    32    33   ar
    25    33    34    1
    26    33    35   ar
    27    35    36   ar
    28     5     6    1
    29     6     7    1
    30     7     8    1
    31     7     9    1
    32    16    17   ar
    33    17    18    1
    34    17    19   ar
    35    19    13   ar
    36     8     1    1
    37     9     3    1
    38    36    30   ar
    39    25    26    1
@<TRIPOS>MOLECULE
*****
 36 39 0 0 0
SMALL
GASTEIGER

@<TRIPOS>ATOM
      1 N         138.3517  142.3837  162.2918 N.3     1  UNL1       -0.2653
      2 C         139.3838  142.8567  161.3115 C.3     1  UNL1        0.1036
      3 C         140.0705  141.8722  160.4119 C.3     1  UNL1        0.1470
      4 C         140.7572  140.8877  159.5123 C.3     1  UNL1        0.1035
      5 N         140.4119  139.4302  159.5931 N.3     1  UNL1       -0.2685
      6 C         139.3797  138.9573  160.5735 C.3     1  UNL1        0.1035
      7 C         138.6930  139.9417  161.4730 C.3     1  UNL1        0.1470
      8 C         138.0063  140.9262  162.3726 C.3     1  UNL1        0.1036
      9 O         139.7251  140.4147  160.4927 O.3     1  UNL1       -0.3530
     10 C         137.6649  143.3682  163.1914 C.3     1  UNL1        0.1202
     11 C         138.2112  144.7573  163.3388 C.3     1  UNL1        0.2228
     12 O         139.2649  145.0437  164.3674 O.3     1  UNL1       -0.4717
     13 C         143.2888  143.0496  164.0819 C.ar    1  UNL1        0.0709
     14 C         143.0032  144.2813  163.2747 C.ar    1  UNL1        0.0135
     15 C         141.6619  144.9460  163.3699 C.ar    1  UNL1        0.0399
     16 C         140.6062  144.3790  164.2722 C.ar    1  UNL1        0.1659
     17 C         140.8918  143.1474  165.0793 C.ar    1  UNL1        0.1745
     18 F         139.8361  142.5804  165.9815 F       1  UNL1       -0.2009
     19 C         142.2331  142.4826  164.9841 C.ar    1  UNL1        0.0430
     20 N         145.9714  141.7203  163.8915 N.1     1  UNL1       -0.1908
     21 C         144.6301  142.3849  163.9867 C.1     1  UNL1        0.1005
     22 C         141.0986  138.4458  158.6936 C.3     1  UNL1        0.0737
     23 C         142.5073  138.0201  158.9842 C.3     1  UNL1        0.0362
     24 C         143.0035  137.9853  160.3993 C.3     1  UNL1        0.0929
     25 N         142.2297  137.2418  161.4473 N.3     1  UNL1       -0.1793
     26 H         142.6833  136.3352  161.5604 H       1  UNL1        0.1488
     27 S         142.0771  137.8241  162.8212 S.O2    1  UNL1        0.0602
     28 O         143.2304  138.7465  162.5583 O.2     1  UNL1       -0.1530
     29 O         140.9239  136.9017  163.0842 O.2     1  UNL1       -0.1530
     30 C         141.9246  138.4064  164.1951 C.ar    1  UNL1        0.1221
     31 C         140.5657  138.7922  164.6995 C.ar    1  UNL1        0.0222
     32 C         140.4131  139.3745  166.0735 C.ar    1  UNL1        0.0310
     33 C         141.6195  139.5711  166.9430 C.ar    1  UNL1        0.1402
     34 F         141.4669  140.1534  168.3168 F       1  UNL1       -0.2042
     35 C         142.9784  139.1853  166.4385 C.ar    1  UNL1        0.0310
     36 C         143.1310  138.6030  165.0646 C.ar    1  UNL1        0.0222
@<TRIPOS>BOND
     1    20    21    3
     2    21    13    1
     3    13    14   ar
     4    14    15   ar
     5    15    16   ar
     6    16    12    1
     7    12    11    1
     8    11    10    1
     9    10     1    1
    10     1     2    1
    11     2     3    1
    12     3     4    1
    13     4     5    1
    14     5    22    1
    15    22    23    1
    16    23    24    1
    17    24    25    1
    18    25    27    1
    19    27    28    2
    20    27    29    2
    21    27    30    1
    22    30    31   ar
    23    31    32   ar
    24    32    33   ar
    25    33    34    1
    26    33    35   ar
    27    35    36   ar
    28     5     6    1
    29     6     7    1
    30     7     8    1
    31     7     9    1
    32    16    17   ar
    33    17    18    1
    34    17    19   ar
    35    19    13   ar
    36     8     1    1
    37     9     3    1
    38    36    30   ar
    39    25    26    1
@<TRIPOS>MOLECULE
*****
 36 39 0 0 0
SMALL
GASTEIGER

@<TRIPOS>ATOM
      1 N         142.4925  140.0300  159.6849 N.3     1  UNL1       -0.2653
      2 C         141.0564  140.3114  159.3555 C.3     1  UNL1        0.1036
      3 C         140.4860  141.6778  159.5947 C.3     1  UNL1        0.1470
      4 C         139.9154  143.0443  159.8340 C.3     1  UNL1        0.1035
      5 N         140.7810  144.1294  160.4027 N.3     1  UNL1       -0.2685
      6 C         142.2171  143.8480  160.7321 C.3     1  UNL1        0.1035
      7 C         142.7876  142.4815  160.4928 C.3     1  UNL1        0.1470
      8 C         143.3580  141.1150  160.2536 C.3     1  UNL1        0.1036
      9 O         141.3515  142.7629  160.1634 O.3     1  UNL1       -0.3530
     10 C         143.0630  138.6634  159.4456 C.3     1  UNL1        0.1202
     11 C         143.0092  137.6279  160.5295 C.3     1  UNL1        0.2228
     12 O         143.2659  138.0197  161.9545 O.3     1  UNL1       -0.4717
     13 C         139.8370  138.3499  164.8499 C.ar    1  UNL1        0.0709
     14 C         139.6363  137.6797  163.5230 C.ar    1  UNL1        0.0135
     15 C         140.7793  137.5697  162.5578 C.ar    1  UNL1        0.0399
     16 C         142.1230  138.1297  162.9196 C.ar    1  UNL1        0.1659
     17 C         142.3237  138.7998  164.2465 C.ar    1  UNL1        0.1745
     18 F         143.6673  139.3599  164.6083 F       1  UNL1       -0.2009
     19 C         141.1807  138.9099  165.2117 C.ar    1  UNL1        0.0430
     20 N         137.5511  138.5700  166.7801 N.1     1  UNL1       -0.1908
     21 C         138.6940  138.4599  165.8150 C.1     1  UNL1        0.1005
     22 C         140.2105  145.4959  160.6420 C.3     1  UNL1        0.0737
     23 C         139.9039  145.9465  162.0395 C.3     1  UNL1        0.0362
     24 C         138.9812  145.1382  162.9027 C.3     1  UNL1        0.0929
     25 N         139.2730  143.6898  163.1615 N.3     1  UNL1       -0.1793
     26 H         139.7311  143.3277  162.3252 H       1  UNL1        0.1488
     27 S         140.1275  143.2938  164.3291 S.O2    1  UNL1        0.0602
     28 O         139.4140  144.2935  165.1902 O.2     1  UNL1       -0.1530
     29 O         140.8410  142.2942  163.4680 O.2     1  UNL1       -0.1530
     30 C         140.9819  142.8980  165.4967 C.ar    1  UNL1        0.1221
     31 C         142.4274  142.5569  165.2867 C.ar    1  UNL1        0.0222
     32 C         143.2819  142.1610  166.4543 C.ar    1  UNL1        0.0310
     33 C         142.6908  142.1062  167.8318 C.ar    1  UNL1        0.1402
     34 F         143.5451  141.7103  168.9994 F       1  UNL1       -0.2042
     35 C         141.2452  142.4472  168.0417 C.ar    1  UNL1        0.0310
     36 C         140.3908  142.8431  166.8742 C.ar    1  UNL1        0.0222
@<TRIPOS>BOND
     1    20    21    3
     2    21    13    1
     3    13    14   ar
     4    14    15   ar
     5    15    16   ar
     6    16    12    1
     7    12    11    1
     8    11    10    1
     9    10     1    1
    10     1     2    1
    11     2     3    1
    12     3     4    1
    13     4     5    1
    14     5    22    1
    15    22    23    1
    16    23    24    1
    17    24    25    1
    18    25    27    1
    19    27    28    2
    20    27    29    2
    21    27    30    1
    22    30    31   ar
    23    31    32   ar
    24    32    33   ar
    25    33    34    1
    26    33    35   ar
    27    35    36   ar
    28     5     6    1
    29     6     7    1
    30     7     8    1
    31     7     9    1
    32    16    17   ar
    33    17    18    1
    34    17    19   ar
    35    19    13   ar
    36     8     1    1
    37     9     3    1
    38    36    30   ar
    39    25    26    1
