@<TRIPOS>MOLECULE
*****
 46 52 0 0 0
SMALL
GASTEIGER

@<TRIPOS>ATOM
      1 N         139.7730  140.4892  157.2510 N.am    1  UNL1       -0.2222
      2 C         139.8681  141.7094  156.3837 C.2     1  UNL1        0.3219
      3 O         140.3505  141.7464  154.9638 O.2     1  UNL1       -0.2512
      4 N         139.3962  142.8860  157.1856 N.am    1  UNL1       -0.1907
      5 C         139.0094  142.3930  158.5484 C.2     1  UNL1        0.2529
      6 O         138.4824  143.2336  159.6733 O.2     1  UNL1       -0.2724
      7 C         139.2423  140.9116  158.5889 C.3     1  UNL1        0.1391
      8 C         139.5243  139.4424  158.4807 C.3     1  UNL1        0.0449
      9 C         139.2710  138.5418  159.6531 C.3     1  UNL1        0.0746
     10 N         138.7356  139.1104  160.9338 N.3     1  UNL1       -0.2676
     11 C         138.4536  140.5797  161.0420 C.3     1  UNL1        0.0746
     12 C         138.7070  141.4803  159.8695 C.3     1  UNL1        0.0449
     13 C         141.9111  137.1961  156.6731 C.ar    1  UNL1        0.2293
     14 C         141.5406  138.5934  157.0734 C.ar    1  UNL1        0.0924
     15 C         140.1435  139.0919  156.8507 C.ar    1  UNL1        0.1453
     16 N         139.1169  138.1930  156.2277 N.ar    1  UNL1       -0.2084
     17 C         139.4874  136.7957  155.8274 C.ar    1  UNL1        0.2027
     18 N         140.8845  136.2973  156.0501 N.ar    1  UNL1       -0.1892
     19 C         143.8056  135.4991  156.1434 C.3     1  UNL1        0.2542
     20 O         143.3082  136.6976  156.8958 O.3     1  UNL1       -0.4560
     21 C         139.3238  144.3061  156.7084 C.ar    1  UNL1        0.0622
     22 C         138.4056  144.6723  155.5802 C.ar    1  UNL1        0.0154
     23 C         138.3332  146.0926  155.1030 C.ar    1  UNL1        0.0013
     24 C         139.1790  147.1466  155.7540 C.ar    1  UNL1        0.0001
     25 C         140.0972  146.7804  156.8822 C.ar    1  UNL1        0.0013
     26 C         140.1695  145.3601  157.3594 C.ar    1  UNL1        0.0154
     27 C         139.1065  148.5668  155.2768 C.ar    1  UNL1        0.0000
     28 C         138.4412  149.6100  156.1248 C.ar    1  UNL1        0.0000
     29 C         138.3688  151.0302  155.6476 C.ar    1  UNL1        0.0015
     30 C         138.9618  151.4072  154.3223 C.ar    1  UNL1        0.0171
     31 C         139.6271  150.3640  153.4743 C.ar    1  UNL1        0.0015
     32 C         139.6995  148.9439  153.9514 C.ar    1  UNL1        0.0000
     33 C         138.8893  152.8274  153.8451 C.ar    1  UNL1        0.0754
     34 C         140.0558  153.7452  153.6281 C.ar    1  UNL1        0.0409
     35 C         139.5251  155.0642  153.1500 C.ar    1  UNL1        0.1214
     36 N         138.0307  154.9617  153.0715 N.ar    1  UNL1       -0.1711
     37 N         137.6377  153.5792  153.5011 N.ar    1  UNL1       -0.2757
     38 H         136.7195  153.2272  153.5489 H       1  UNL1        0.1889
     39 C         138.4823  138.2097  162.1063 C.3     1  UNL1        0.1183
     40 C         138.9479  138.6109  163.4745 C.ar    1  UNL1        0.0712
     41 N         138.0861  139.4890  164.3325 N.ar    1  UNL1       -0.2471
     42 C         138.5518  139.8902  165.7009 C.ar    1  UNL1        0.0985
     43 C         139.8792  139.4131  166.2112 C.ar    1  UNL1        0.0203
     44 C         140.7409  138.5349  165.3532 C.ar    1  UNL1       -0.0015
     45 C         140.2753  138.1338  163.9849 C.ar    1  UNL1       -0.0069
     46 C         141.1371  137.2556  163.1269 C.3     1  UNL1        0.0323
@<TRIPOS>BOND
     1    19    20    1
     2    20    13    1
     3    13    14   ar
     4    14    15   ar
     5    15     1    1
     6     1     2   am
     7     2     3    2
     8     2     4   am
     9     4    21    1
    10    21    22   ar
    11    22    23   ar
    12    23    24   ar
    13    24    27    1
    14    27    28   ar
    15    28    29   ar
    16    29    30   ar
    17    30    33    1
    18    33    34   ar
    19    34    35   ar
    20    35    36   ar
    21    36    37   ar
    22    30    31   ar
    23    31    32   ar
    24    24    25   ar
    25    25    26   ar
    26     4     5   am
    27     5     6    2
    28     5     7    1
    29     7     8    1
    30     8     9    1
    31     9    10    1
    32    10    39    1
    33    39    40    1
    34    40    41   ar
    35    41    42   ar
    36    42    43   ar
    37    43    44   ar
    38    44    45   ar
    39    45    46    1
    40    10    11    1
    41    11    12    1
    42    15    16   ar
    43    16    17   ar
    44    17    18   ar
    45    18    13   ar
    46     7     1    1
    47    45    40   ar
    48    26    21   ar
    49    12     7    1
    50    32    27   ar
    51    37    33   ar
    52    37    38    1
@<TRIPOS>MOLECULE
*****
 46 52 0 0 0
SMALL
GASTEIGER

@<TRIPOS>ATOM
      1 N         138.8329  142.9122  156.6390 N.am    1  UNL1       -0.2222
      2 C         138.7328  142.1544  157.9297 C.2     1  UNL1        0.3219
      3 O         138.1672  140.7757  158.1011 O.2     1  UNL1       -0.2512
      4 N         139.2976  143.0174  159.0189 N.am    1  UNL1       -0.1907
      5 C         139.7467  144.3085  158.4014 C.2     1  UNL1        0.2529
      6 O         140.3731  145.4621  159.1273 O.2     1  UNL1       -0.2724
      7 C         139.4595  144.2435  156.9306 C.3     1  UNL1        0.1391
      8 C         139.1148  144.0348  155.4857 C.3     1  UNL1        0.0449
      9 C         139.4035  145.1119  154.4826 C.3     1  UNL1        0.0746
     10 N         140.0370  146.3979  154.9243 N.3     1  UNL1       -0.2676
     11 C         140.3817  146.6066  156.3691 C.3     1  UNL1        0.0746
     12 C         140.0930  145.5295  157.3722 C.3     1  UNL1        0.0449
     13 C         136.5072  142.1047  153.5263 C.ar    1  UNL1        0.2293
     14 C         136.9551  142.5926  154.8722 C.ar    1  UNL1        0.0924
     15 C         138.3850  142.4244  155.2932 C.ar    1  UNL1        0.1453
     16 N         139.3669  141.7683  154.3683 N.ar    1  UNL1       -0.2084
     17 C         138.9191  141.2804  153.0225 C.ar    1  UNL1        0.2027
     18 N         137.4891  141.4487  152.6014 N.ar    1  UNL1       -0.1892
     19 C         134.0145  141.3916  153.6912 C.3     1  UNL1        0.2542
     20 O         135.0774  142.2729  153.1053 O.3     1  UNL1       -0.4560
     21 C         139.3960  142.6532  160.4706 C.ar    1  UNL1        0.0622
     22 C         140.7399  142.4319  161.0990 C.ar    1  UNL1        0.0154
     23 C         140.8383  142.0677  162.5508 C.ar    1  UNL1        0.0013
     24 C         139.5927  141.9248  163.3742 C.ar    1  UNL1        0.0001
     25 C         138.2487  142.1460  162.7459 C.ar    1  UNL1        0.0013
     26 C         138.1504  142.5102  161.2941 C.ar    1  UNL1        0.0154
     27 C         139.6911  141.5605  164.8260 C.ar    1  UNL1        0.0000
     28 C         140.4563  142.4402  165.7698 C.ar    1  UNL1        0.0000
     29 C         140.5546  142.0760  167.2216 C.ar    1  UNL1        0.0015
     30 C         139.8878  140.8321  167.7295 C.ar    1  UNL1        0.0171
     31 C         139.1226  139.9524  166.7858 C.ar    1  UNL1        0.0015
     32 C         139.0242  140.3166  165.3341 C.ar    1  UNL1        0.0000
     33 C         139.9861  140.4678  169.1813 C.ar    1  UNL1        0.0754
     34 C         141.1363  140.7793  170.0925 C.ar    1  UNL1        0.0409
     35 C         140.8126  140.2321  171.4511 C.ar    1  UNL1        0.1214
     36 N         139.4624  139.5826  171.3797 N.ar    1  UNL1       -0.1711
     37 N         138.9516  139.7282  169.9768 N.ar    1  UNL1       -0.2757
     38 H         138.0889  139.3966  169.6378 H       1  UNL1        0.1889
     39 C         140.3257  147.4751  153.9211 C.3     1  UNL1        0.1183
     40 C         139.8350  148.8724  154.1589 C.ar    1  UNL1        0.0712
     41 N         138.9170  149.1593  155.3099 N.ar    1  UNL1       -0.2471
     42 C         138.4263  150.5567  155.5477 C.ar    1  UNL1        0.0985
     43 C         138.8536  151.6672  154.6343 C.ar    1  UNL1        0.0203
     44 C         139.7716  151.3804  153.4833 C.ar    1  UNL1       -0.0015
     45 C         140.2623  149.9830  153.2455 C.ar    1  UNL1       -0.0069
     46 C         141.1804  149.6961  152.0945 C.3     1  UNL1        0.0323
@<TRIPOS>BOND
     1    19    20    1
     2    20    13    1
     3    13    14   ar
     4    14    15   ar
     5    15     1    1
     6     1     2   am
     7     2     3    2
     8     2     4   am
     9     4    21    1
    10    21    22   ar
    11    22    23   ar
    12    23    24   ar
    13    24    27    1
    14    27    28   ar
    15    28    29   ar
    16    29    30   ar
    17    30    33    1
    18    33    34   ar
    19    34    35   ar
    20    35    36   ar
    21    36    37   ar
    22    30    31   ar
    23    31    32   ar
    24    24    25   ar
    25    25    26   ar
    26     4     5   am
    27     5     6    2
    28     5     7    1
    29     7     8    1
    30     8     9    1
    31     9    10    1
    32    10    39    1
    33    39    40    1
    34    40    41   ar
    35    41    42   ar
    36    42    43   ar
    37    43    44   ar
    38    44    45   ar
    39    45    46    1
    40    10    11    1
    41    11    12    1
    42    15    16   ar
    43    16    17   ar
    44    17    18   ar
    45    18    13   ar
    46     7     1    1
    47    45    40   ar
    48    26    21   ar
    49    12     7    1
    50    32    27   ar
    51    37    33   ar
    52    37    38    1
@<TRIPOS>MOLECULE
*****
 46 52 0 0 0
SMALL
GASTEIGER

@<TRIPOS>ATOM
      1 N         141.8631  140.1340  156.7410 N.am    1  UNL1       -0.2222
      2 C         141.6005  141.3517  155.9052 C.2     1  UNL1        0.3219
      3 O         141.7714  141.4544  154.4186 O.2     1  UNL1       -0.2512
      4 N         141.1371  142.4487  156.8173 N.am    1  UNL1       -0.1907
      5 C         141.1132  141.9090  158.2167 C.2     1  UNL1        0.2529
      6 O         140.7112  142.6667  159.4472 O.2     1  UNL1       -0.2724
      7 C         141.5619  140.4784  158.1695 C.3     1  UNL1        0.1391
      8 C         142.0260  139.0665  157.9671 C.3     1  UNL1        0.0449
      9 C         142.1515  138.1426  159.1421 C.3     1  UNL1        0.0746
     10 N         141.8129  138.6307  160.5195 N.3     1  UNL1       -0.2676
     11 C         141.3488  140.0426  160.7219 C.3     1  UNL1        0.0746
     12 C         141.2233  140.9665  159.5469 C.3     1  UNL1        0.0449
     13 C         141.8313  136.4157  155.3543 C.ar    1  UNL1        0.2293
     14 C         141.3518  137.7445  155.8586 C.ar    1  UNL1        0.0924
     15 C         142.3427  138.8052  156.2366 C.ar    1  UNL1        0.1453
     16 N         143.8131  138.5372  156.1104 N.ar    1  UNL1       -0.2084
     17 C         144.2927  137.2085  155.6061 C.ar    1  UNL1        0.2027
     18 N         143.3018  136.1477  155.2280 N.ar    1  UNL1       -0.1892
     19 C         141.2176  133.9066  155.0764 C.3     1  UNL1        0.2542
     20 O         140.8405  135.3549  154.9762 O.3     1  UNL1       -0.4560
     21 C         140.7631  143.8409  156.4029 C.ar    1  UNL1        0.0622
     22 C         141.3673  145.0204  157.1055 C.ar    1  UNL1        0.0154
     23 C         140.9933  146.4127  156.6910 C.ar    1  UNL1        0.0013
     24 C         140.0152  146.6254  155.5738 C.ar    1  UNL1        0.0001
     25 C         139.4110  145.4459  154.8712 C.ar    1  UNL1        0.0013
     26 C         139.7850  144.0537  155.2857 C.ar    1  UNL1        0.0154
     27 C         139.6413  148.0177  155.1593 C.ar    1  UNL1        0.0000
     28 C         140.0983  148.5543  153.8353 C.ar    1  UNL1        0.0000
     29 C         139.7243  149.9465  153.4207 C.ar    1  UNL1        0.0015
     30 C         138.8934  150.8021  154.3304 C.ar    1  UNL1        0.0171
     31 C         138.4364  150.2655  155.6545 C.ar    1  UNL1        0.0015
     32 C         138.8103  148.8734  156.0690 C.ar    1  UNL1        0.0000
     33 C         138.5194  152.1944  153.9159 C.ar    1  UNL1        0.0754
     34 C         138.3885  153.3799  154.8255 C.ar    1  UNL1        0.0409
     35 C         137.9989  154.5638  153.9908 C.ar    1  UNL1        0.1214
     36 N         137.8890  154.1100  152.5653 N.ar    1  UNL1       -0.1711
     37 N         138.2107  152.6455  152.5190 N.ar    1  UNL1       -0.2757
     38 H         138.2180  152.0798  151.7133 H       1  UNL1        0.1889
     39 C         141.9384  137.7067  161.6945 C.3     1  UNL1        0.1183
     40 C         142.6236  138.1723  162.9449 C.ar    1  UNL1        0.0712
     41 N         143.9783  138.8114  162.8642 N.ar    1  UNL1       -0.2471
     42 C         144.6636  139.2771  164.1147 C.ar    1  UNL1        0.0985
     43 C         143.9942  139.1036  165.4458 C.ar    1  UNL1        0.0203
     44 C         142.6395  138.4645  165.5265 C.ar    1  UNL1       -0.0015
     45 C         141.9543  137.9989  164.2761 C.ar    1  UNL1       -0.0069
     46 C         140.5996  137.3598  164.3568 C.3     1  UNL1        0.0323
@<TRIPOS>BOND
     1    19    20    1
     2    20    13    1
     3    13    14   ar
     4    14    15   ar
     5    15     1    1
     6     1     2   am
     7     2     3    2
     8     2     4   am
     9     4    21    1
    10    21    22   ar
    11    22    23   ar
    12    23    24   ar
    13    24    27    1
    14    27    28   ar
    15    28    29   ar
    16    29    30   ar
    17    30    33    1
    18    33    34   ar
    19    34    35   ar
    20    35    36   ar
    21    36    37   ar
    22    30    31   ar
    23    31    32   ar
    24    24    25   ar
    25    25    26   ar
    26     4     5   am
    27     5     6    2
    28     5     7    1
    29     7     8    1
    30     8     9    1
    31     9    10    1
    32    10    39    1
    33    39    40    1
    34    40    41   ar
    35    41    42   ar
    36    42    43   ar
    37    43    44   ar
    38    44    45   ar
    39    45    46    1
    40    10    11    1
    41    11    12    1
    42    15    16   ar
    43    16    17   ar
    44    17    18   ar
    45    18    13   ar
    46     7     1    1
    47    45    40   ar
    48    26    21   ar
    49    12     7    1
    50    32    27   ar
    51    37    33   ar
    52    37    38    1
@<TRIPOS>MOLECULE
*****
 46 52 0 0 0
SMALL
GASTEIGER

@<TRIPOS>ATOM
      1 N         142.1601  137.0311  156.3410 N.am    1  UNL1       -0.2222
      2 C         142.0184  138.0048  157.4733 C.2     1  UNL1        0.3219
      3 O         141.4687  139.3970  157.3754 O.2     1  UNL1       -0.2512
      4 N         142.5229  137.3417  158.7207 N.am    1  UNL1       -0.1907
      5 C         142.9764  135.9583  158.3593 C.2     1  UNL1        0.2529
      6 O         143.5528  134.9448  159.3029 O.2     1  UNL1       -0.2724
      7 C         142.7522  135.7663  156.8886 C.3     1  UNL1        0.1391
      8 C         142.4718  135.7210  155.4157 C.3     1  UNL1        0.0449
      9 C         142.7847  134.4819  154.6305 C.3     1  UNL1        0.0746
     10 N         143.3780  133.2881  155.3182 N.3     1  UNL1       -0.2676
     11 C         143.6584  133.3334  156.7910 C.3     1  UNL1        0.0746
     12 C         143.3455  134.5726  157.5762 C.3     1  UNL1        0.0449
     13 C         140.0161  137.1765  153.0046 C.ar    1  UNL1        0.2293
     14 C         140.3992  136.9288  154.4335 C.ar    1  UNL1        0.0924
     15 C         141.7770  137.2788  154.9120 C.ar    1  UNL1        0.1453
     16 N         142.7718  137.8765  153.9617 N.ar    1  UNL1       -0.2084
     17 C         142.3888  138.1242  152.5328 C.ar    1  UNL1        0.2027
     18 N         141.0109  137.7742  152.0542 N.ar    1  UNL1       -0.1892
     19 C         137.4382  137.4502  153.1744 C.3     1  UNL1        0.2542
     20 O         138.6383  136.8265  152.5259 O.3     1  UNL1       -0.4560
     21 C         142.5663  137.9544  160.0891 C.ar    1  UNL1        0.0622
     22 C         141.2935  138.3692  160.7658 C.ar    1  UNL1        0.0154
     23 C         141.3369  138.9819  162.1343 C.ar    1  UNL1        0.0013
     24 C         142.6530  139.1799  162.8260 C.ar    1  UNL1        0.0001
     25 C         143.9259  138.7652  162.1492 C.ar    1  UNL1        0.0013
     26 C         143.8824  138.1524  160.7808 C.ar    1  UNL1        0.0154
     27 C         142.6964  139.7927  164.1944 C.ar    1  UNL1        0.0000
     28 C         142.8134  141.2803  164.3467 C.ar    1  UNL1        0.0000
     29 C         142.8567  141.8931  165.7152 C.ar    1  UNL1        0.0015
     30 C         142.7832  141.0181  166.9313 C.ar    1  UNL1        0.0171
     31 C         142.6663  139.5305  166.7790 C.ar    1  UNL1        0.0015
     32 C         142.6229  138.9177  165.4107 C.ar    1  UNL1        0.0000
     33 C         142.8266  141.6309  168.2998 C.ar    1  UNL1        0.0754
     34 C         141.9124  141.3018  169.4425 C.ar    1  UNL1        0.0409
     35 C         142.3126  142.1478  170.6147 C.ar    1  UNL1        0.1214
     36 N         143.4741  142.9998  170.1965 N.ar    1  UNL1       -0.1711
     37 N         143.7918  142.6803  168.7657 N.ar    1  UNL1       -0.2757
     38 H         144.5081  143.0878  168.2271 H       1  UNL1        0.1889
     39 C         143.6909  132.0489  154.5329 C.3     1  UNL1        0.1183
     40 C         143.5729  130.7010  155.1802 C.ar    1  UNL1        0.0712
     41 N         144.7992  130.0042  155.6909 N.ar    1  UNL1       -0.2471
     42 C         144.6811  128.6562  156.3383 C.ar    1  UNL1        0.0985
     43 C         143.3367  128.0050  156.4750 C.ar    1  UNL1        0.0203
     44 C         142.1105  128.7018  155.9643 C.ar    1  UNL1       -0.0015
     45 C         142.2285  130.0497  155.3169 C.ar    1  UNL1       -0.0069
     46 C         141.0022  130.7464  154.8062 C.3     1  UNL1        0.0323
@<TRIPOS>BOND
     1    19    20    1
     2    20    13    1
     3    13    14   ar
     4    14    15   ar
     5    15     1    1
     6     1     2   am
     7     2     3    2
     8     2     4   am
     9     4    21    1
    10    21    22   ar
    11    22    23   ar
    12    23    24   ar
    13    24    27    1
    14    27    28   ar
    15    28    29   ar
    16    29    30   ar
    17    30    33    1
    18    33    34   ar
    19    34    35   ar
    20    35    36   ar
    21    36    37   ar
    22    30    31   ar
    23    31    32   ar
    24    24    25   ar
    25    25    26   ar
    26     4     5   am
    27     5     6    2
    28     5     7    1
    29     7     8    1
    30     8     9    1
    31     9    10    1
    32    10    39    1
    33    39    40    1
    34    40    41   ar
    35    41    42   ar
    36    42    43   ar
    37    43    44   ar
    38    44    45   ar
    39    45    46    1
    40    10    11    1
    41    11    12    1
    42    15    16   ar
    43    16    17   ar
    44    17    18   ar
    45    18    13   ar
    46     7     1    1
    47    45    40   ar
    48    26    21   ar
    49    12     7    1
    50    32    27   ar
    51    37    33   ar
    52    37    38    1
@<TRIPOS>MOLECULE
*****
 46 52 0 0 0
SMALL
GASTEIGER

@<TRIPOS>ATOM
      1 N         139.4809  138.4905  156.4732 N.am    1  UNL1       -0.2222
      2 C         139.2947  139.2493  157.7538 C.2     1  UNL1        0.3219
      3 O         138.1869  140.2152  158.0532 O.2     1  UNL1       -0.2512
      4 N         140.4110  138.8724  158.6823 N.am    1  UNL1       -0.1907
      5 C         141.2869  137.8808  157.9756 C.2     1  UNL1        0.2529
      6 O         142.5211  137.2381  158.5357 O.2     1  UNL1       -0.2724
      7 C         140.7121  137.6447  156.6103 C.3     1  UNL1        0.1391
      8 C         140.0246  137.5110  155.2839 C.3     1  UNL1        0.0449
      9 C         140.5830  136.5908  154.2392 C.3     1  UNL1        0.0746
     10 N         141.8289  135.8044  154.5209 N.3     1  UNL1       -0.2676
     11 C         142.5164  135.9381  155.8473 C.3     1  UNL1        0.0746
     12 C         141.9580  136.8583  156.8920 C.3     1  UNL1        0.0449
     13 C         137.9168  139.7128  153.0367 C.ar    1  UNL1        0.2293
     14 C         138.8058  139.6388  154.2426 C.ar    1  UNL1        0.0924
     15 C         138.5918  138.5645  155.2673 C.ar    1  UNL1        0.1453
     16 N         137.4888  137.5642  155.0862 N.ar    1  UNL1       -0.2084
     17 C         136.5998  137.6381  153.8804 C.ar    1  UNL1        0.2027
     18 N         136.8137  138.7125  152.8556 N.ar    1  UNL1       -0.1892
     19 C         138.9466  141.9983  152.3543 C.3     1  UNL1        0.2542
     20 O         138.1306  140.7870  152.0120 O.3     1  UNL1       -0.4560
     21 C         140.6153  139.3954  160.0731 C.ar    1  UNL1        0.0622
     22 C         140.9427  140.8431  160.2895 C.ar    1  UNL1        0.0154
     23 C         141.1471  141.3661  161.6805 C.ar    1  UNL1        0.0013
     24 C         141.0241  140.4414  162.8551 C.ar    1  UNL1        0.0001
     25 C         140.6966  138.9935  162.6387 C.ar    1  UNL1        0.0013
     26 C         140.4923  138.4706  161.2477 C.ar    1  UNL1        0.0154
     27 C         141.2284  140.9643  164.2460 C.ar    1  UNL1        0.0000
     28 C         140.0927  141.6180  164.9759 C.ar    1  UNL1        0.0000
     29 C         140.2971  142.1410  166.3669 C.ar    1  UNL1        0.0015
     30 C         141.6372  142.0102  167.0278 C.ar    1  UNL1        0.0171
     31 C         142.7730  141.3565  166.2979 C.ar    1  UNL1        0.0015
     32 C         142.5686  140.8336  164.9071 C.ar    1  UNL1        0.0000
     33 C         141.8416  142.5332  168.4188 C.ar    1  UNL1        0.0754
     34 C         143.0940  142.4039  169.2342 C.ar    1  UNL1        0.0409
     35 C         142.8559  143.0681  170.5579 C.ar    1  UNL1        0.1214
     36 N         141.4563  143.6079  170.5607 N.ar    1  UNL1       -0.1711
     37 N         140.8294  143.2773  169.2386 N.ar    1  UNL1       -0.2757
     38 H         139.9144  143.5081  168.9581 H       1  UNL1        0.1889
     39 C         142.3873  134.8841  153.4762 C.3     1  UNL1        0.1183
     40 C         141.8148  133.5083  153.3052 C.ar    1  UNL1        0.0712
     41 N         140.7002  133.2758  152.3286 N.ar    1  UNL1       -0.2471
     42 C         140.1277  131.8998  152.1577 C.ar    1  UNL1        0.0985
     43 C         140.6697  130.7565  152.9633 C.ar    1  UNL1        0.0203
     44 C         141.7843  130.9891  153.9398 C.ar    1  UNL1       -0.0015
     45 C         142.3568  132.3649  154.1108 C.ar    1  UNL1       -0.0069
     46 C         143.4714  132.5975  155.0873 C.3     1  UNL1        0.0323
@<TRIPOS>BOND
     1    19    20    1
     2    20    13    1
     3    13    14   ar
     4    14    15   ar
     5    15     1    1
     6     1     2   am
     7     2     3    2
     8     2     4   am
     9     4    21    1
    10    21    22   ar
    11    22    23   ar
    12    23    24   ar
    13    24    27    1
    14    27    28   ar
    15    28    29   ar
    16    29    30   ar
    17    30    33    1
    18    33    34   ar
    19    34    35   ar
    20    35    36   ar
    21    36    37   ar
    22    30    31   ar
    23    31    32   ar
    24    24    25   ar
    25    25    26   ar
    26     4     5   am
    27     5     6    2
    28     5     7    1
    29     7     8    1
    30     8     9    1
    31     9    10    1
    32    10    39    1
    33    39    40    1
    34    40    41   ar
    35    41    42   ar
    36    42    43   ar
    37    43    44   ar
    38    44    45   ar
    39    45    46    1
    40    10    11    1
    41    11    12    1
    42    15    16   ar
    43    16    17   ar
    44    17    18   ar
    45    18    13   ar
    46     7     1    1
    47    45    40   ar
    48    26    21   ar
    49    12     7    1
    50    32    27   ar
    51    37    33   ar
    52    37    38    1
@<TRIPOS>MOLECULE
*****
 46 52 0 0 0
SMALL
GASTEIGER

@<TRIPOS>ATOM
      1 N         141.6618  143.9315  156.4033 N.am    1  UNL1       -0.2222
      2 C         141.7856  143.1342  157.6679 C.2     1  UNL1        0.3219
      3 O         142.5219  141.8367  157.8236 O.2     1  UNL1       -0.2512
      4 N         141.0437  143.8623  158.7494 N.am    1  UNL1       -0.1907
      5 C         140.4615  145.1095  158.1532 C.2     1  UNL1        0.2529
      6 O         139.6412  146.1341  158.8794 O.2     1  UNL1       -0.2724
      7 C         140.8434  145.1523  156.7032 C.3     1  UNL1        0.1391
      8 C         141.3003  145.0592  155.2776 C.3     1  UNL1        0.0449
      9 C         140.9291  146.1340  154.2994 C.3     1  UNL1        0.0746
     10 N         140.1010  147.3019  154.7469 N.3     1  UNL1       -0.2676
     11 C         139.6442  147.3951  156.1725 C.3     1  UNL1        0.0746
     12 C         140.0154  146.3202  157.1507 C.3     1  UNL1        0.0449
     13 C         144.2396  143.6398  153.4001 C.ar    1  UNL1        0.2293
     14 C         143.6488  144.0001  154.7309 C.ar    1  UNL1        0.0924
     15 C         142.2526  143.5712  155.0725 C.ar    1  UNL1        0.1453
     16 N         141.4473  142.7820  154.0832 N.ar    1  UNL1       -0.2084
     17 C         142.0380  142.4217  152.7525 C.ar    1  UNL1        0.2027
     18 N         143.4343  142.8506  152.4108 N.ar    1  UNL1       -0.1892
     19 C         146.7463  143.8628  154.0456 C.3     1  UNL1        0.2542
     20 O         145.6358  144.0686  153.0584 O.3     1  UNL1       -0.4560
     21 C         140.9080  143.4207  160.1764 C.ar    1  UNL1        0.0622
     22 C         141.9153  143.8611  161.1968 C.ar    1  UNL1        0.0154
     23 C         141.7795  143.4195  162.6239 C.ar    1  UNL1        0.0013
     24 C         140.6365  142.5375  163.0306 C.ar    1  UNL1        0.0001
     25 C         139.6291  142.0970  162.0101 C.ar    1  UNL1        0.0013
     26 C         139.7649  142.5387  160.5831 C.ar    1  UNL1        0.0154
     27 C         140.5007  142.0959  164.4577 C.ar    1  UNL1        0.0000
     28 C         140.0767  140.6916  164.7711 C.ar    1  UNL1        0.0000
     29 C         139.9410  140.2500  166.1982 C.ar    1  UNL1        0.0015
     30 C         140.2292  141.2127  167.3118 C.ar    1  UNL1        0.0171
     31 C         140.6532  142.6170  166.9984 C.ar    1  UNL1        0.0015
     32 C         140.7890  143.0586  165.5714 C.ar    1  UNL1        0.0000
     33 C         140.0935  140.7711  168.7389 C.ar    1  UNL1        0.0754
     34 C         141.0329  141.1072  169.8590 C.ar    1  UNL1        0.0409
     35 C         140.5145  140.4597  171.1088 C.ar    1  UNL1        0.1214
     36 N         139.2546  139.7234  170.7612 N.ar    1  UNL1       -0.1711
     37 N         138.9944  139.9159  169.2964 N.ar    1  UNL1       -0.2757
     38 H         138.2356  139.5459  168.7900 H       1  UNL1        0.1889
     39 C         139.7298  148.3768  153.7686 C.3     1  UNL1        0.1183
     40 C         140.7149  149.4565  153.4311 C.ar    1  UNL1        0.0712
     41 N         141.7814  149.2053  152.4067 N.ar    1  UNL1       -0.2471
     42 C         142.7664  150.2851  152.0692 C.ar    1  UNL1        0.0985
     43 C         142.6849  151.6160  152.7562 C.ar    1  UNL1        0.0203
     44 C         141.6185  151.8672  153.7806 C.ar    1  UNL1       -0.0015
     45 C         140.6334  150.7875  154.1181 C.ar    1  UNL1       -0.0069
     46 C         139.5669  151.0387  155.1425 C.3     1  UNL1        0.0323
@<TRIPOS>BOND
     1    19    20    1
     2    20    13    1
     3    13    14   ar
     4    14    15   ar
     5    15     1    1
     6     1     2   am
     7     2     3    2
     8     2     4   am
     9     4    21    1
    10    21    22   ar
    11    22    23   ar
    12    23    24   ar
    13    24    27    1
    14    27    28   ar
    15    28    29   ar
    16    29    30   ar
    17    30    33    1
    18    33    34   ar
    19    34    35   ar
    20    35    36   ar
    21    36    37   ar
    22    30    31   ar
    23    31    32   ar
    24    24    25   ar
    25    25    26   ar
    26     4     5   am
    27     5     6    2
    28     5     7    1
    29     7     8    1
    30     8     9    1
    31     9    10    1
    32    10    39    1
    33    39    40    1
    34    40    41   ar
    35    41    42   ar
    36    42    43   ar
    37    43    44   ar
    38    44    45   ar
    39    45    46    1
    40    10    11    1
    41    11    12    1
    42    15    16   ar
    43    16    17   ar
    44    17    18   ar
    45    18    13   ar
    46     7     1    1
    47    45    40   ar
    48    26    21   ar
    49    12     7    1
    50    32    27   ar
    51    37    33   ar
    52    37    38    1
@<TRIPOS>MOLECULE
*****
 46 52 0 0 0
SMALL
GASTEIGER

@<TRIPOS>ATOM
      1 N         141.0198  142.5838  160.1315 N.am    1  UNL1       -0.2222
      2 C         140.1765  142.5006  161.3694 C.2     1  UNL1        0.3219
      3 O         139.1243  143.4846  161.7872 O.2     1  UNL1       -0.2512
      4 N         140.5701  141.2605  162.1159 N.am    1  UNL1       -0.1907
      5 C         141.6567  140.5773  161.3395 C.2     1  UNL1        0.2529
      6 O         142.3446  139.3006  161.7222 O.2     1  UNL1       -0.2724
      7 C         141.9346  141.3952  160.1131 C.3     1  UNL1        0.1391
      8 C         142.1009  142.3114  158.9372 C.3     1  UNL1        0.0449
      9 C         143.1155  141.9961  157.8783 C.3     1  UNL1        0.0746
     10 N         143.9637  140.7644  157.9954 N.3     1  UNL1       -0.2676
     11 C         143.7973  139.8482  159.1713 C.3     1  UNL1        0.0746
     12 C         142.7828  140.1636  160.2302 C.3     1  UNL1        0.0449
     13 C         139.8885  144.6697  156.9505 C.ar    1  UNL1        0.2293
     14 C         139.9494  143.5878  157.9877 C.ar    1  UNL1        0.0924
     15 C         140.9589  143.6657  159.0944 C.ar    1  UNL1        0.1453
     16 N         141.9075  144.8256  159.1639 N.ar    1  UNL1       -0.2084
     17 C         141.8467  145.9075  158.1268 C.ar    1  UNL1        0.2027
     18 N         140.8371  145.8296  157.0200 N.ar    1  UNL1       -0.1892
     19 C         139.1607  145.2473  154.5243 C.3     1  UNL1        0.2542
     20 O         138.8790  144.5918  155.8438 O.3     1  UNL1       -0.4560
     21 C         139.9808  140.7867  163.4112 C.ar    1  UNL1        0.0622
     22 C         139.3328  139.4363  163.4910 C.ar    1  UNL1        0.0154
     23 C         138.7434  138.9625  164.7864 C.ar    1  UNL1        0.0013
     24 C         138.8020  139.8392  166.0022 C.ar    1  UNL1        0.0001
     25 C         139.4500  141.1897  165.9225 C.ar    1  UNL1        0.0013
     26 C         140.0394  141.6634  164.6270 C.ar    1  UNL1        0.0154
     27 C         138.2126  139.3655  167.2976 C.ar    1  UNL1        0.0000
     28 C         137.1884  138.2696  167.2993 C.ar    1  UNL1        0.0000
     29 C         136.5990  137.7958  168.5948 C.ar    1  UNL1        0.0015
     30 C         137.0339  138.4181  169.8885 C.ar    1  UNL1        0.0171
     31 C         138.0580  139.5140  169.8868 C.ar    1  UNL1        0.0015
     32 C         138.6474  139.9877  168.5914 C.ar    1  UNL1        0.0000
     33 C         136.4445  137.9443  171.1840 C.ar    1  UNL1        0.0754
     34 C         135.4402  138.6830  172.0181 C.ar    1  UNL1        0.0409
     35 C         135.1310  137.8439  173.2224 C.ar    1  UNL1        0.1214
     36 N         135.9440  136.5866  173.1326 N.ar    1  UNL1       -0.1711
     37 N         136.7558  136.6486  171.8727 N.ar    1  UNL1       -0.2757
     38 H         137.3829  135.9598  171.5538 H       1  UNL1        0.1889
     39 C         144.9782  140.4491  156.9365 C.3     1  UNL1        0.1183
     40 C         145.0799  141.3127  155.7143 C.ar    1  UNL1        0.0712
     41 N         144.1452  141.0943  154.5617 N.ar    1  UNL1       -0.2471
     42 C         144.2469  141.9580  153.3395 C.ar    1  UNL1        0.0985
     43 C         145.2834  143.0400  153.2699 C.ar    1  UNL1        0.0203
     44 C         146.2182  143.2584  154.4225 C.ar    1  UNL1       -0.0015
     45 C         146.1165  142.3948  155.6447 C.ar    1  UNL1       -0.0069
     46 C         147.0513  142.6132  156.7973 C.3     1  UNL1        0.0323
@<TRIPOS>BOND
     1    19    20    1
     2    20    13    1
     3    13    14   ar
     4    14    15   ar
     5    15     1    1
     6     1     2   am
     7     2     3    2
     8     2     4   am
     9     4    21    1
    10    21    22   ar
    11    22    23   ar
    12    23    24   ar
    13    24    27    1
    14    27    28   ar
    15    28    29   ar
    16    29    30   ar
    17    30    33    1
    18    33    34   ar
    19    34    35   ar
    20    35    36   ar
    21    36    37   ar
    22    30    31   ar
    23    31    32   ar
    24    24    25   ar
    25    25    26   ar
    26     4     5   am
    27     5     6    2
    28     5     7    1
    29     7     8    1
    30     8     9    1
    31     9    10    1
    32    10    39    1
    33    39    40    1
    34    40    41   ar
    35    41    42   ar
    36    42    43   ar
    37    43    44   ar
    38    44    45   ar
    39    45    46    1
    40    10    11    1
    41    11    12    1
    42    15    16   ar
    43    16    17   ar
    44    17    18   ar
    45    18    13   ar
    46     7     1    1
    47    45    40   ar
    48    26    21   ar
    49    12     7    1
    50    32    27   ar
    51    37    33   ar
    52    37    38    1
@<TRIPOS>MOLECULE
*****
 46 52 0 0 0
SMALL
GASTEIGER

@<TRIPOS>ATOM
      1 N         141.9070  138.4440  155.9386 N.am    1  UNL1       -0.2222
      2 C         141.2519  138.3181  157.2823 C.2     1  UNL1        0.3219
      3 O         139.9710  137.5944  157.5743 O.2     1  UNL1       -0.2512
      4 N         142.1029  139.0430  158.2825 N.am    1  UNL1       -0.1907
      5 C         143.2838  139.6169  157.5572 C.2     1  UNL1        0.2529
      6 O         144.3914  140.4199  158.1723 O.2     1  UNL1       -0.2724
      7 C         143.1627  139.2467  156.1085 C.3     1  UNL1        0.1391
      8 C         142.9084  138.8030  154.6985 C.3     1  UNL1        0.0449
      9 C         143.8735  139.1709  153.6108 C.3     1  UNL1        0.0746
     10 N         145.0930  139.9826  153.9332 N.3     1  UNL1       -0.2676
     11 C         145.3474  140.4263  155.3433 C.3     1  UNL1        0.0746
     12 C         144.3822  140.0584  156.4309 C.3     1  UNL1        0.0449
     13 C         141.3426  135.9367  152.9146 C.ar    1  UNL1        0.2293
     14 C         141.8536  136.5124  154.2021 C.ar    1  UNL1        0.0924
     15 C         141.3959  137.8684  154.6512 C.ar    1  UNL1        0.1453
     16 N         140.4272  138.6487  153.8130 N.ar    1  UNL1       -0.2084
     17 C         139.9161  138.0731  152.5256 C.ar    1  UNL1        0.2027
     18 N         140.3738  136.7171  152.0764 N.ar    1  UNL1       -0.1892
     19 C         142.1946  133.5483  153.4795 C.3     1  UNL1        0.2542
     20 O         141.8002  134.5808  152.4654 O.3     1  UNL1       -0.4560
     21 C         141.8223  139.1714  159.7504 C.ar    1  UNL1        0.0622
     22 C         141.8700  137.9587  160.6320 C.ar    1  UNL1        0.0154
     23 C         141.5894  138.0872  162.0999 C.ar    1  UNL1        0.0013
     24 C         141.2610  139.4282  162.6862 C.ar    1  UNL1        0.0001
     25 C         141.2132  140.6409  161.8046 C.ar    1  UNL1        0.0013
     26 C         141.4939  140.5124  160.3367 C.ar    1  UNL1        0.0154
     27 C         140.9803  139.5566  164.1541 C.ar    1  UNL1        0.0000
     28 C         142.1161  139.6394  165.1304 C.ar    1  UNL1        0.0000
     29 C         141.8354  139.7678  166.5984 C.ar    1  UNL1        0.0015
     30 C         140.4189  139.8134  167.0898 C.ar    1  UNL1        0.0171
     31 C         139.2832  139.7307  166.1135 C.ar    1  UNL1        0.0015
     32 C         139.5638  139.6022  164.6457 C.ar    1  UNL1        0.0000
     33 C         140.1383  139.9418  168.5578 C.ar    1  UNL1        0.0754
     34 C         141.1434  140.2676  169.6224 C.ar    1  UNL1        0.0409
     35 C         140.4296  140.2941  170.9414 C.ar    1  UNL1        0.1214
     36 N         138.9832  139.9847  170.6920 N.ar    1  UNL1       -0.1711
     37 N         138.8031  139.7670  169.2187 N.ar    1  UNL1       -0.2757
     38 H         137.9572  139.5478  168.7653 H       1  UNL1        0.1889
     39 C         146.0582  140.3505  152.8455 C.3     1  UNL1        0.1183
     40 C         146.8802  141.5996  152.9631 C.ar    1  UNL1        0.0712
     41 N         148.3196  141.5142  153.3764 N.ar    1  UNL1       -0.2471
     42 C         149.1416  142.7634  153.4940 C.ar    1  UNL1        0.0985
     43 C         148.5242  144.0981  153.1983 C.ar    1  UNL1        0.0203
     44 C         147.0848  144.1835  152.7850 C.ar    1  UNL1       -0.0015
     45 C         146.2628  142.9344  152.6673 C.ar    1  UNL1       -0.0069
     46 C         144.8234  143.0199  152.2540 C.3     1  UNL1        0.0323
@<TRIPOS>BOND
     1    19    20    1
     2    20    13    1
     3    13    14   ar
     4    14    15   ar
     5    15     1    1
     6     1     2   am
     7     2     3    2
     8     2     4   am
     9     4    21    1
    10    21    22   ar
    11    22    23   ar
    12    23    24   ar
    13    24    27    1
    14    27    28   ar
    15    28    29   ar
    16    29    30   ar
    17    30    33    1
    18    33    34   ar
    19    34    35   ar
    20    35    36   ar
    21    36    37   ar
    22    30    31   ar
    23    31    32   ar
    24    24    25   ar
    25    25    26   ar
    26     4     5   am
    27     5     6    2
    28     5     7    1
    29     7     8    1
    30     8     9    1
    31     9    10    1
    32    10    39    1
    33    39    40    1
    34    40    41   ar
    35    41    42   ar
    36    42    43   ar
    37    43    44   ar
    38    44    45   ar
    39    45    46    1
    40    10    11    1
    41    11    12    1
    42    15    16   ar
    43    16    17   ar
    44    17    18   ar
    45    18    13   ar
    46     7     1    1
    47    45    40   ar
    48    26    21   ar
    49    12     7    1
    50    32    27   ar
    51    37    33   ar
    52    37    38    1
@<TRIPOS>MOLECULE
*****
 46 52 0 0 0
SMALL
GASTEIGER

@<TRIPOS>ATOM
      1 N         143.1317  138.9495  156.5158 N.am    1  UNL1       -0.2222
      2 C         142.6538  138.9010  157.9369 C.2     1  UNL1        0.3219
      3 O         141.6032  137.9801  158.4829 O.2     1  UNL1       -0.2512
      4 N         143.4110  139.9352  158.7161 N.am    1  UNL1       -0.1907
      5 C         144.3568  140.6228  157.7766 C.2     1  UNL1        0.2529
      6 O         145.3083  141.7259  158.1341 O.2     1  UNL1       -0.2724
      7 C         144.1842  140.0136  156.4167 C.3     1  UNL1        0.1391
      8 C         143.9027  139.3115  155.1215 C.3     1  UNL1        0.0449
      9 C         144.6512  139.6985  153.8806 C.3     1  UNL1        0.0746
     10 N         145.6811  140.7876  153.9349 N.3     1  UNL1       -0.2676
     11 C         145.9627  141.4897  155.2301 C.3     1  UNL1        0.0746
     12 C         145.2142  141.1027  156.4710 C.3     1  UNL1        0.0449
     13 C         142.5766  135.7845  154.1867 C.ar    1  UNL1        0.2293
     14 C         143.0654  136.6485  155.3112 C.ar    1  UNL1        0.0924
     15 C         142.6428  138.0855  155.3913 C.ar    1  UNL1        0.1453
     16 N         141.7313  138.6585  154.3468 N.ar    1  UNL1       -0.2084
     17 C         141.2425  137.7946  153.2223 C.ar    1  UNL1        0.2027
     18 N         141.6651  136.3575  153.1423 N.ar    1  UNL1       -0.1892
     19 C         143.2933  133.5812  155.3621 C.3     1  UNL1        0.2542
     20 O         142.9991  134.3475  154.1066 O.3     1  UNL1       -0.4560
     21 C         143.2506  140.2300  160.1780 C.ar    1  UNL1        0.0622
     22 C         142.2446  141.2457  160.6323 C.ar    1  UNL1        0.0154
     23 C         142.0842  141.5405  162.0943 C.ar    1  UNL1        0.0013
     24 C         142.9297  140.8196  163.1019 C.ar    1  UNL1        0.0001
     25 C         143.9357  139.8039  162.6477 C.ar    1  UNL1        0.0013
     26 C         144.0961  139.5091  161.1857 C.ar    1  UNL1        0.0154
     27 C         142.7692  141.1144  164.5639 C.ar    1  UNL1        0.0000
     28 C         141.8671  140.2621  165.4063 C.ar    1  UNL1        0.0000
     29 C         141.7067  140.5569  166.8683 C.ar    1  UNL1        0.0015
     30 C         142.4484  141.7041  167.4878 C.ar    1  UNL1        0.0171
     31 C         143.3505  142.5565  166.6454 C.ar    1  UNL1        0.0015
     32 C         143.5110  142.2617  165.1835 C.ar    1  UNL1        0.0000
     33 C         142.2880  141.9989  168.9498 C.ar    1  UNL1        0.0754
     34 C         141.2984  141.3557  169.8755 C.ar    1  UNL1        0.0409
     35 C         141.4878  141.9479  171.2405 C.ar    1  UNL1        0.1214
     36 N         142.5944  142.9573  171.1585 N.ar    1  UNL1       -0.1711
     37 N         143.0890  142.9888  169.7427 N.ar    1  UNL1       -0.2757
     38 H         143.8122  143.5590  169.3949 H       1  UNL1        0.1889
     39 C         146.4296  141.1745  152.6938 C.3     1  UNL1        0.1183
     40 C         147.7676  141.8437  152.8029 C.ar    1  UNL1        0.0712
     41 N         149.0186  141.0171  152.8426 N.ar    1  UNL1       -0.2471
     42 C         150.3567  141.6864  152.9517 C.ar    1  UNL1        0.0985
     43 C         150.4436  143.1822  153.0211 C.ar    1  UNL1        0.0203
     44 C         149.1926  144.0089  152.9814 C.ar    1  UNL1       -0.0015
     45 C         147.8546  143.3397  152.8723 C.ar    1  UNL1       -0.0069
     46 C         146.6035  144.1663  152.8326 C.3     1  UNL1        0.0323
@<TRIPOS>BOND
     1    19    20    1
     2    20    13    1
     3    13    14   ar
     4    14    15   ar
     5    15     1    1
     6     1     2   am
     7     2     3    2
     8     2     4   am
     9     4    21    1
    10    21    22   ar
    11    22    23   ar
    12    23    24   ar
    13    24    27    1
    14    27    28   ar
    15    28    29   ar
    16    29    30   ar
    17    30    33    1
    18    33    34   ar
    19    34    35   ar
    20    35    36   ar
    21    36    37   ar
    22    30    31   ar
    23    31    32   ar
    24    24    25   ar
    25    25    26   ar
    26     4     5   am
    27     5     6    2
    28     5     7    1
    29     7     8    1
    30     8     9    1
    31     9    10    1
    32    10    39    1
    33    39    40    1
    34    40    41   ar
    35    41    42   ar
    36    42    43   ar
    37    43    44   ar
    38    44    45   ar
    39    45    46    1
    40    10    11    1
    41    11    12    1
    42    15    16   ar
    43    16    17   ar
    44    17    18   ar
    45    18    13   ar
    46     7     1    1
    47    45    40   ar
    48    26    21   ar
    49    12     7    1
    50    32    27   ar
    51    37    33   ar
    52    37    38    1
