@<TRIPOS>MOLECULE
*****
 35 39 0 0 0
SMALL
GASTEIGER

@<TRIPOS>ATOM
      1 N         142.7379  144.2289  163.2465 N.3     1  UNL1       -0.2687
      2 C         142.4654  143.5931  161.9156 C.3     1  UNL1        0.0737
      3 C         141.0573  143.4861  161.4097 C.3     1  UNL1        0.0359
      4 C         139.9218  144.0148  162.2349 C.3     1  UNL1        0.0901
      5 C         140.1943  144.6506  163.5659 C.3     1  UNL1        0.1911
      6 F         139.0587  145.1794  164.3911 F       1  UNL1       -0.2343
      7 C         141.6024  144.7576  164.0717 C.3     1  UNL1        0.1092
      8 N         138.5137  143.9078  161.7291 N.3     1  UNL1       -0.2913
      9 H         138.4068  144.6166  161.0034 H       1  UNL1        0.1236
     10 C         138.0217  142.6154  161.1480 C.3     1  UNL1        0.1153
     11 C         138.2291  141.3306  161.8937 C.ar    1  UNL1        0.0782
     12 C         137.9874  141.2747  163.3731 C.ar    1  UNL1        0.0562
     13 C         138.1948  139.9899  164.1188 C.ar    1  UNL1        0.1752
     14 C         138.6440  138.7609  163.3853 C.ar    1  UNL1        0.1914
     15 C         138.8857  138.8169  161.9059 C.ar    1  UNL1        0.1384
     16 N         138.6782  140.1018  161.1602 N.ar    1  UNL1       -0.2434
     17 O         138.8514  137.4761  164.1310 O.3     1  UNL1       -0.4668
     18 C         138.6096  137.4202  165.6104 C.3     1  UNL1        0.2527
     19 C         138.1605  138.6490  166.3439 C.3     1  UNL1        0.2526
     20 O         137.9531  139.9339  165.5982 O.3     1  UNL1       -0.4683
     21 C         144.1460  144.3359  163.7523 C.3     1  UNL1        0.0970
     22 C         144.5940  143.4913  164.9082 C.3     1  UNL1        0.1263
     23 C         141.5266  141.8517  167.7636 C.ar    1  UNL1        0.0699
     24 C         141.2266  140.3822  167.7793 C.ar    1  UNL1        0.0104
     25 C         141.9489  139.4591  166.8433 C.ar    1  UNL1        0.0021
     26 C         142.9714  140.0056  165.8916 C.ar    1  UNL1        0.0161
     27 C         143.6937  139.0825  164.9555 C.ar    1  UNL1        0.0063
     28 C         144.7162  139.6290  164.0038 C.ar    1  UNL1        0.0608
     29 C         145.0163  141.0987  163.9880 C.ar    1  UNL1        0.2610
     30 O         146.0387  141.6452  163.0362 O.2     1  UNL1       -0.2670
     31 N         144.2939  142.0217  164.9240 N.ar    1  UNL1       -0.2941
     32 C         143.2714  141.4752  165.8758 C.ar    1  UNL1        0.0631
     33 C         142.5490  142.3982  166.8118 C.ar    1  UNL1        0.0275
     34 N         140.0819  143.6979  169.6356 N.1     1  UNL1       -0.1908
     35 C         140.8042  142.7748  168.6996 C.1     1  UNL1        0.1005
@<TRIPOS>BOND
     1    34    35    3
     2    35    23    1
     3    23    24   ar
     4    24    25   ar
     5    25    26   ar
     6    26    27   ar
     7    27    28   ar
     8    28    29   ar
     9    29    30    2
    10    29    31   ar
    11    31    22    1
    12    22    21    1
    13    21     1    1
    14     1     2    1
    15     2     3    1
    16     3     4    1
    17     4     8    1
    18     8    10    1
    19    10    11    1
    20    11    12   ar
    21    12    13   ar
    22    13    14   ar
    23    14    15   ar
    24    15    16   ar
    25    14    17    1
    26    17    18    1
    27    18    19    1
    28    19    20    1
    29     4     5    1
    30     5     6    1
    31     5     7    1
    32    31    32   ar
    33    32    33   ar
    34    33    23   ar
    35    32    26   ar
    36     7     1    1
    37    16    11   ar
    38    20    13    1
    39     8     9    1
@<TRIPOS>MOLECULE
*****
 35 39 0 0 0
SMALL
GASTEIGER

@<TRIPOS>ATOM
      1 N         138.0693  141.2775  163.8734 N.3     1  UNL1       -0.2687
      2 C         137.9800  141.4995  162.3926 C.3     1  UNL1        0.0737
      3 C         138.1747  142.8752  161.8275 C.3     1  UNL1        0.0359
      4 C         138.4588  144.0289  162.7431 C.3     1  UNL1        0.0901
      5 C         138.5482  143.8068  164.2238 C.3     1  UNL1        0.1911
      6 F         138.8323  144.9605  165.1395 F       1  UNL1       -0.2343
      7 C         138.3535  142.4311  164.7890 C.3     1  UNL1        0.1092
      8 N         138.6535  145.4047  162.1779 N.3     1  UNL1       -0.2913
      9 H         138.1652  146.0499  162.7989 H       1  UNL1        0.1236
     10 C         140.0385  145.9492  161.9900 C.3     1  UNL1        0.1153
     11 C         141.2102  145.0145  161.9305 C.ar    1  UNL1        0.0782
     12 C         141.9916  144.7111  163.1744 C.ar    1  UNL1        0.0562
     13 C         143.1632  143.7764  163.1148 C.ar    1  UNL1        0.1752
     14 C         143.5535  143.1451  161.8112 C.ar    1  UNL1        0.1914
     15 C         142.7721  143.4485  160.5673 C.ar    1  UNL1        0.1384
     16 N         141.6004  144.3832  160.6270 N.ar    1  UNL1       -0.2434
     17 O         144.7252  142.2104  161.7516 O.3     1  UNL1       -0.4668
     18 C         145.5066  141.9070  162.9956 C.3     1  UNL1        0.2527
     19 C         145.1164  142.5383  164.2991 C.3     1  UNL1        0.2526
     20 O         143.9447  143.4731  164.3587 O.3     1  UNL1       -0.4683
     21 C         137.8746  139.9017  164.4386 C.3     1  UNL1        0.0970
     22 C         138.4232  139.5626  165.7929 C.3     1  UNL1        0.1263
     23 C         140.6705  141.4597  169.1988 C.ar    1  UNL1        0.0699
     24 C         142.1371  141.1954  169.3692 C.ar    1  UNL1        0.0104
     25 C         142.8547  140.2987  168.4043 C.ar    1  UNL1        0.0021
     26 C         142.1056  139.6663  167.2690 C.ar    1  UNL1        0.0161
     27 C         142.8232  138.7696  166.3041 C.ar    1  UNL1        0.0063
     28 C         142.0741  138.1373  165.1688 C.ar    1  UNL1        0.0608
     29 C         140.6074  138.4016  164.9984 C.ar    1  UNL1        0.2610
     30 O         139.8583  137.7692  163.8631 O.2     1  UNL1       -0.2670
     31 N         139.8898  139.2983  165.9633 N.ar    1  UNL1       -0.2941
     32 C         140.6390  139.9307  167.0986 C.ar    1  UNL1        0.0631
     33 C         139.9214  140.8274  168.0635 C.ar    1  UNL1        0.0275
     34 N         139.2354  143.2531  171.1286 N.1     1  UNL1       -0.1908
     35 C         139.9530  142.3564  170.1637 C.1     1  UNL1        0.1005
@<TRIPOS>BOND
     1    34    35    3
     2    35    23    1
     3    23    24   ar
     4    24    25   ar
     5    25    26   ar
     6    26    27   ar
     7    27    28   ar
     8    28    29   ar
     9    29    30    2
    10    29    31   ar
    11    31    22    1
    12    22    21    1
    13    21     1    1
    14     1     2    1
    15     2     3    1
    16     3     4    1
    17     4     8    1
    18     8    10    1
    19    10    11    1
    20    11    12   ar
    21    12    13   ar
    22    13    14   ar
    23    14    15   ar
    24    15    16   ar
    25    14    17    1
    26    17    18    1
    27    18    19    1
    28    19    20    1
    29     4     5    1
    30     5     6    1
    31     5     7    1
    32    31    32   ar
    33    32    33   ar
    34    33    23   ar
    35    32    26   ar
    36     7     1    1
    37    16    11   ar
    38    20    13    1
    39     8     9    1
@<TRIPOS>MOLECULE
*****
 35 39 0 0 0
SMALL
GASTEIGER

@<TRIPOS>ATOM
      1 N         144.5142  140.1741  163.4197 N.3     1  UNL1       -0.2687
      2 C         144.1139  140.0553  161.9790 C.3     1  UNL1        0.0737
      3 C         143.0316  139.0974  161.5778 C.3     1  UNL1        0.0359
      4 C         142.3496  138.2583  162.6173 C.3     1  UNL1        0.0901
      5 C         142.7499  138.3770  164.0580 C.3     1  UNL1        0.1911
      6 F         142.0678  137.5378  165.0976 F       1  UNL1       -0.2343
      7 C         143.8322  139.3349  164.4592 C.3     1  UNL1        0.1092
      8 N         141.2672  137.3003  162.2161 N.3     1  UNL1       -0.2913
      9 H         141.4174  136.4453  162.7516 H       1  UNL1        0.1236
     10 C         139.8268  137.6774  162.3976 C.3     1  UNL1        0.1153
     11 C         139.4028  139.1093  162.2562 C.ar    1  UNL1        0.0782
     12 C         138.8731  139.8555  163.4447 C.ar    1  UNL1        0.0562
     13 C         138.4491  141.2874  163.3033 C.ar    1  UNL1        0.1752
     14 C         138.5549  141.9730  161.9734 C.ar    1  UNL1        0.1914
     15 C         139.0846  141.2268  160.7849 C.ar    1  UNL1        0.1384
     16 N         139.5086  139.7949  160.9263 N.ar    1  UNL1       -0.2434
     17 O         138.1309  143.4049  161.8320 O.3     1  UNL1       -0.4668
     18 C         137.6012  144.1511  163.0205 C.3     1  UNL1        0.2527
     19 C         137.4954  143.4655  164.3504 C.3     1  UNL1        0.2526
     20 O         137.9194  142.0336  164.4918 O.3     1  UNL1       -0.4683
     21 C         145.5965  141.1320  163.8208 C.3     1  UNL1        0.0970
     22 C         145.2383  142.4747  164.3855 C.3     1  UNL1        0.1263
     23 C         142.3440  141.8027  167.7651 C.ar    1  UNL1        0.0699
     24 C         140.9363  142.3096  167.6589 C.ar    1  UNL1        0.0104
     25 C         140.4933  143.0405  166.4262 C.ar    1  UNL1        0.0021
     26 C         141.4580  143.2645  165.2997 C.ar    1  UNL1        0.0161
     27 C         141.0150  143.9954  164.0670 C.ar    1  UNL1        0.0063
     28 C         141.9797  144.2195  162.9405 C.ar    1  UNL1        0.0608
     29 C         143.3875  143.7126  163.0466 C.ar    1  UNL1        0.2610
     30 O         144.3523  143.9366  161.9201 O.2     1  UNL1       -0.2670
     31 N         143.8306  142.9816  164.2793 N.ar    1  UNL1       -0.2941
     32 C         142.8657  142.7576  165.4059 C.ar    1  UNL1        0.0631
     33 C         143.3088  142.0267  166.6385 C.ar    1  UNL1        0.0275
     34 N         143.2301  140.3408  170.2304 N.1     1  UNL1       -0.1908
     35 C         142.7871  141.0718  168.9977 C.1     1  UNL1        0.1005
@<TRIPOS>BOND
     1    34    35    3
     2    35    23    1
     3    23    24   ar
     4    24    25   ar
     5    25    26   ar
     6    26    27   ar
     7    27    28   ar
     8    28    29   ar
     9    29    30    2
    10    29    31   ar
    11    31    22    1
    12    22    21    1
    13    21     1    1
    14     1     2    1
    15     2     3    1
    16     3     4    1
    17     4     8    1
    18     8    10    1
    19    10    11    1
    20    11    12   ar
    21    12    13   ar
    22    13    14   ar
    23    14    15   ar
    24    15    16   ar
    25    14    17    1
    26    17    18    1
    27    18    19    1
    28    19    20    1
    29     4     5    1
    30     5     6    1
    31     5     7    1
    32    31    32   ar
    33    32    33   ar
    34    33    23   ar
    35    32    26   ar
    36     7     1    1
    37    16    11   ar
    38    20    13    1
    39     8     9    1
@<TRIPOS>MOLECULE
*****
 35 39 0 0 0
SMALL
GASTEIGER

@<TRIPOS>ATOM
      1 N         137.8829  142.9575  162.9239 N.3     1  UNL1       -0.2687
      2 C         137.6773  141.8250  163.8857 C.3     1  UNL1        0.0737
      3 C         137.6716  140.4100  163.3880 C.3     1  UNL1        0.0359
      4 C         137.8714  140.1275  161.9285 C.3     1  UNL1        0.0901
      5 C         138.0770  141.2601  160.9667 C.3     1  UNL1        0.1911
      6 F         138.2769  140.9775  159.5071 F       1  UNL1       -0.2343
      7 C         138.0828  142.6750  161.4644 C.3     1  UNL1        0.1092
      8 N         137.8657  138.7125  161.4308 N.3     1  UNL1       -0.2913
      9 H         137.2998  138.7011  160.5822 H       1  UNL1        0.1236
     10 C         139.1589  138.0293  161.0980 C.3     1  UNL1        0.1153
     11 C         140.3580  138.2238  161.9779 C.ar    1  UNL1        0.0782
     12 C         141.4205  139.2092  161.5907 C.ar    1  UNL1        0.0562
     13 C         142.6196  139.4038  162.4706 C.ar    1  UNL1        0.1752
     14 C         142.7562  138.6128  163.7379 C.ar    1  UNL1        0.1914
     15 C         141.6937  137.6274  164.1251 C.ar    1  UNL1        0.1384
     16 N         140.4946  137.4329  163.2451 N.ar    1  UNL1       -0.2434
     17 O         143.9553  138.8074  164.6178 O.3     1  UNL1       -0.4668
     18 C         145.0178  139.7928  164.2305 C.3     1  UNL1        0.2527
     19 C         144.8813  140.5837  162.9633 C.3     1  UNL1        0.2526
     20 O         143.6821  140.3892  162.0833 O.3     1  UNL1       -0.4683
     21 C         137.8886  144.3726  163.4216 C.3     1  UNL1        0.0970
     22 C         138.8892  144.8004  164.4540 C.3     1  UNL1        0.1263
     23 C         140.9121  141.8798  167.2159 C.ar    1  UNL1        0.0699
     24 C         142.3651  141.5562  167.0314 C.ar    1  UNL1        0.0104
     25 C         143.1438  142.2062  165.9263 C.ar    1  UNL1        0.0021
     26 C         142.4696  143.1797  165.0057 C.ar    1  UNL1        0.0161
     27 C         143.2483  143.8296  163.9007 C.ar    1  UNL1        0.0063
     28 C         142.5740  144.8031  162.9800 C.ar    1  UNL1        0.0608
     29 C         141.1209  145.1268  163.1645 C.ar    1  UNL1        0.2610
     30 O         140.4467  146.1003  162.2439 O.2     1  UNL1       -0.2670
     31 N         140.3422  144.4768  164.2695 N.ar    1  UNL1       -0.2941
     32 C         141.0166  143.5032  165.1902 C.ar    1  UNL1        0.0631
     33 C         140.2379  142.8533  166.2952 C.ar    1  UNL1        0.0275
     34 N         139.3547  140.5799  169.4260 N.1     1  UNL1       -0.1908
     35 C         140.1334  141.2298  168.3209 C.1     1  UNL1        0.1005
@<TRIPOS>BOND
     1    34    35    3
     2    35    23    1
     3    23    24   ar
     4    24    25   ar
     5    25    26   ar
     6    26    27   ar
     7    27    28   ar
     8    28    29   ar
     9    29    30    2
    10    29    31   ar
    11    31    22    1
    12    22    21    1
    13    21     1    1
    14     1     2    1
    15     2     3    1
    16     3     4    1
    17     4     8    1
    18     8    10    1
    19    10    11    1
    20    11    12   ar
    21    12    13   ar
    22    13    14   ar
    23    14    15   ar
    24    15    16   ar
    25    14    17    1
    26    17    18    1
    27    18    19    1
    28    19    20    1
    29     4     5    1
    30     5     6    1
    31     5     7    1
    32    31    32   ar
    33    32    33   ar
    34    33    23   ar
    35    32    26   ar
    36     7     1    1
    37    16    11   ar
    38    20    13    1
    39     8     9    1
@<TRIPOS>MOLECULE
*****
 35 39 0 0 0
SMALL
GASTEIGER

@<TRIPOS>ATOM
      1 N         138.0965  140.1169  162.9245 N.3     1  UNL1       -0.2687
      2 C         137.8931  140.9802  164.1342 C.3     1  UNL1        0.0737
      3 C         137.7975  142.4697  163.9851 C.3     1  UNL1        0.0359
      4 C         137.9053  143.0958  162.6264 C.3     1  UNL1        0.0901
      5 C         138.1086  142.2325  161.4167 C.3     1  UNL1        0.1911
      6 F         138.2164  142.8588  160.0579 F       1  UNL1       -0.2343
      7 C         138.2042  140.7430  161.5657 C.3     1  UNL1        0.1092
      8 N         137.8097  144.5854  162.4772 N.3     1  UNL1       -0.2913
      9 H         137.1551  144.9111  163.1885 H       1  UNL1        0.1236
     10 C         139.0415  145.4322  162.6020 C.3     1  UNL1        0.1153
     11 C         140.3986  144.8030  162.4914 C.ar    1  UNL1        0.0782
     12 C         141.1319  144.3790  163.7294 C.ar    1  UNL1        0.0562
     13 C         142.4890  143.7498  163.6188 C.ar    1  UNL1        0.1752
     14 C         143.1128  143.5444  162.2702 C.ar    1  UNL1        0.1914
     15 C         142.3795  143.9683  161.0322 C.ar    1  UNL1        0.1384
     16 N         141.0223  144.5976  161.1429 N.ar    1  UNL1       -0.2434
     17 O         144.4699  142.9152  162.1596 O.3     1  UNL1       -0.4668
     18 C         145.2032  142.4913  163.3976 C.3     1  UNL1        0.2527
     19 C         144.5794  142.6966  164.7462 C.3     1  UNL1        0.2526
     20 O         143.2223  143.3259  164.8568 O.3     1  UNL1       -0.4683
     21 C         138.1921  138.6273  163.0736 C.3     1  UNL1        0.0970
     22 C         139.0049  138.0357  164.1869 C.3     1  UNL1        0.1263
     23 C         140.4893  140.0064  167.9503 C.ar    1  UNL1        0.0699
     24 C         141.9403  140.3601  168.0895 C.ar    1  UNL1        0.0104
     25 C         142.8965  140.0569  166.9742 C.ar    1  UNL1        0.0021
     26 C         142.4017  139.4001  165.7198 C.ar    1  UNL1        0.0161
     27 C         143.3579  139.0969  164.6046 C.ar    1  UNL1        0.0063
     28 C         142.8631  138.4400  163.3501 C.ar    1  UNL1        0.0608
     29 C         141.4121  138.0863  163.2109 C.ar    1  UNL1        0.2610
     30 O         140.9173  137.4294  161.9564 O.2     1  UNL1       -0.2670
     31 N         140.4559  138.3894  164.3261 N.ar    1  UNL1       -0.2941
     32 C         140.9507  139.0463  165.5806 C.ar    1  UNL1        0.0631
     33 C         139.9945  139.3495  166.6958 C.ar    1  UNL1        0.0275
     34 N         138.5768  140.6127  170.1807 N.1     1  UNL1       -0.1908
     35 C         139.5331  140.3095  169.0655 C.1     1  UNL1        0.1005
@<TRIPOS>BOND
     1    34    35    3
     2    35    23    1
     3    23    24   ar
     4    24    25   ar
     5    25    26   ar
     6    26    27   ar
     7    27    28   ar
     8    28    29   ar
     9    29    30    2
    10    29    31   ar
    11    31    22    1
    12    22    21    1
    13    21     1    1
    14     1     2    1
    15     2     3    1
    16     3     4    1
    17     4     8    1
    18     8    10    1
    19    10    11    1
    20    11    12   ar
    21    12    13   ar
    22    13    14   ar
    23    14    15   ar
    24    15    16   ar
    25    14    17    1
    26    17    18    1
    27    18    19    1
    28    19    20    1
    29     4     5    1
    30     5     6    1
    31     5     7    1
    32    31    32   ar
    33    32    33   ar
    34    33    23   ar
    35    32    26   ar
    36     7     1    1
    37    16    11   ar
    38    20    13    1
    39     8     9    1
@<TRIPOS>MOLECULE
*****
 35 39 0 0 0
SMALL
GASTEIGER

@<TRIPOS>ATOM
      1 N         138.0084  140.1946  162.4404 N.3     1  UNL1       -0.2687
      2 C         138.2715  140.9338  161.1620 C.3     1  UNL1        0.0737
      3 C         138.2253  142.4329  161.1393 C.3     1  UNL1        0.0359
      4 C         137.9161  143.1927  162.3950 C.3     1  UNL1        0.0901
      5 C         137.6530  142.4535  163.6734 C.3     1  UNL1        0.1911
      6 F         137.3437  143.2135  164.9292 F       1  UNL1       -0.2343
      7 C         137.6991  140.9544  163.6961 C.3     1  UNL1        0.1092
      8 N         137.8699  144.6919  162.3724 N.3     1  UNL1       -0.2913
      9 H         137.2553  144.9791  163.1341 H       1  UNL1        0.1236
     10 C         139.1360  145.4835  162.5156 C.3     1  UNL1        0.1153
     11 C         140.4324  144.7812  162.7916 C.ar    1  UNL1        0.0782
     12 C         141.3552  144.4381  161.6600 C.ar    1  UNL1        0.0562
     13 C         142.6516  143.7359  161.9360 C.ar    1  UNL1        0.1752
     14 C         143.0252  143.3768  163.3437 C.ar    1  UNL1        0.1914
     15 C         142.1023  143.7199  164.4753 C.ar    1  UNL1        0.1384
     16 N         140.8059  144.4222  164.1993 N.ar    1  UNL1       -0.2434
     17 O         144.3216  142.6746  163.6197 O.3     1  UNL1       -0.4668
     18 C         145.2444  142.3314  162.4881 C.3     1  UNL1        0.2527
     19 C         144.8709  142.6905  161.0804 C.3     1  UNL1        0.2526
     20 O         143.5745  143.3928  160.8044 O.3     1  UNL1       -0.4683
     21 C         138.0545  138.6954  162.4630 C.3     1  UNL1        0.0970
     22 C         139.0295  137.9885  163.3573 C.3     1  UNL1        0.1263
     23 C         140.5899  139.8168  167.1616 C.ar    1  UNL1        0.0699
     24 C         142.0124  140.2861  167.2396 C.ar    1  UNL1        0.0104
     25 C         142.9148  140.1461  166.0497 C.ar    1  UNL1        0.0021
     26 C         142.3947  139.5367  164.7816 C.ar    1  UNL1        0.0161
     27 C         143.2971  139.3966  163.5916 C.ar    1  UNL1        0.0063
     28 C         142.7770  138.7872  162.3235 C.ar    1  UNL1        0.0608
     29 C         141.3544  138.3178  162.2454 C.ar    1  UNL1        0.2610
     30 O         140.8343  137.7084  160.9773 O.2     1  UNL1       -0.2670
     31 N         140.4520  138.4579  163.4354 N.ar    1  UNL1       -0.2941
     32 C         140.9722  139.0673  164.7035 C.ar    1  UNL1        0.0631
     33 C         140.0698  139.2074  165.8935 C.ar    1  UNL1        0.0275
     34 N         138.7851  140.0969  169.5415 N.1     1  UNL1       -0.1908
     35 C         139.6875  139.9568  168.3515 C.1     1  UNL1        0.1005
@<TRIPOS>BOND
     1    34    35    3
     2    35    23    1
     3    23    24   ar
     4    24    25   ar
     5    25    26   ar
     6    26    27   ar
     7    27    28   ar
     8    28    29   ar
     9    29    30    2
    10    29    31   ar
    11    31    22    1
    12    22    21    1
    13    21     1    1
    14     1     2    1
    15     2     3    1
    16     3     4    1
    17     4     8    1
    18     8    10    1
    19    10    11    1
    20    11    12   ar
    21    12    13   ar
    22    13    14   ar
    23    14    15   ar
    24    15    16   ar
    25    14    17    1
    26    17    18    1
    27    18    19    1
    28    19    20    1
    29     4     5    1
    30     5     6    1
    31     5     7    1
    32    31    32   ar
    33    32    33   ar
    34    33    23   ar
    35    32    26   ar
    36     7     1    1
    37    16    11   ar
    38    20    13    1
    39     8     9    1
@<TRIPOS>MOLECULE
*****
 35 39 0 0 0
SMALL
GASTEIGER

@<TRIPOS>ATOM
      1 N         142.9807  144.1628  162.2612 N.3     1  UNL1       -0.2687
      2 C         142.3889  145.0111  163.3475 C.3     1  UNL1        0.0737
      3 C         140.9233  145.3303  163.3353 C.3     1  UNL1        0.0359
      4 C         140.0496  144.8012  162.2368 C.3     1  UNL1        0.0901
      5 C         140.6415  143.9529  161.1505 C.3     1  UNL1        0.1911
      6 F         139.7678  143.4238  160.0520 F       1  UNL1       -0.2343
      7 C         142.1071  143.6337  161.1627 C.3     1  UNL1        0.1092
      8 N         138.5840  145.1205  162.2245 N.3     1  UNL1       -0.2913
      9 H         138.2645  145.0005  161.2633 H       1  UNL1        0.1236
     10 C         137.6401  144.3445  163.0946 C.3     1  UNL1        0.1153
     11 C         137.8211  142.8652  163.2646 C.ar    1  UNL1        0.0782
     12 C         138.2148  142.3063  164.5997 C.ar    1  UNL1        0.0562
     13 C         138.3957  140.8270  164.7698 C.ar    1  UNL1        0.1752
     14 C         138.1829  139.9066  163.6046 C.ar    1  UNL1        0.1914
     15 C         137.7891  140.4655  162.2694 C.ar    1  UNL1        0.1384
     16 N         137.6082  141.9449  162.0995 N.ar    1  UNL1       -0.2434
     17 O         138.3638  138.4273  163.7746 O.3     1  UNL1       -0.4668
     18 C         138.7575  137.8684  165.1097 C.3     1  UNL1        0.2527
     19 C         138.9703  138.7888  166.2749 C.3     1  UNL1        0.2526
     20 O         138.7894  140.2681  166.1049 O.3     1  UNL1       -0.4683
     21 C         144.4464  143.8435  162.2735 C.3     1  UNL1        0.0970
     22 C         144.9191  142.5089  162.7687 C.3     1  UNL1        0.1263
     23 C         142.8321  138.7206  161.5264 C.ar    1  UNL1        0.0699
     24 C         142.0107  137.9559  162.5216 C.ar    1  UNL1        0.0104
     25 C         141.8848  138.4540  163.9309 C.ar    1  UNL1        0.0021
     26 C         142.5805  139.7168  164.3450 C.ar    1  UNL1        0.0161
     27 C         142.4547  140.2149  165.7543 C.ar    1  UNL1        0.0063
     28 C         143.1503  141.4776  166.1683 C.ar    1  UNL1        0.0608
     29 C         143.9718  142.2423  165.1731 C.ar    1  UNL1        0.2610
     30 O         144.6675  143.5051  165.5872 O.2     1  UNL1       -0.2670
     31 N         144.0977  141.7442  163.7638 N.ar    1  UNL1       -0.2941
     32 C         143.4020  140.4814  163.3498 C.ar    1  UNL1        0.0631
     33 C         143.5278  139.9833  161.9405 C.ar    1  UNL1        0.0275
     34 N         143.0838  137.7244  158.7079 N.1     1  UNL1       -0.1908
     35 C         142.9580  138.2225  160.1171 C.1     1  UNL1        0.1005
@<TRIPOS>BOND
     1    34    35    3
     2    35    23    1
     3    23    24   ar
     4    24    25   ar
     5    25    26   ar
     6    26    27   ar
     7    27    28   ar
     8    28    29   ar
     9    29    30    2
    10    29    31   ar
    11    31    22    1
    12    22    21    1
    13    21     1    1
    14     1     2    1
    15     2     3    1
    16     3     4    1
    17     4     8    1
    18     8    10    1
    19    10    11    1
    20    11    12   ar
    21    12    13   ar
    22    13    14   ar
    23    14    15   ar
    24    15    16   ar
    25    14    17    1
    26    17    18    1
    27    18    19    1
    28    19    20    1
    29     4     5    1
    30     5     6    1
    31     5     7    1
    32    31    32   ar
    33    32    33   ar
    34    33    23   ar
    35    32    26   ar
    36     7     1    1
    37    16    11   ar
    38    20    13    1
    39     8     9    1
@<TRIPOS>MOLECULE
*****
 35 39 0 0 0
SMALL
GASTEIGER

@<TRIPOS>ATOM
      1 N         142.8871  144.0878  162.5899 N.3     1  UNL1       -0.2687
      2 C         142.1793  144.0929  161.2674 C.3     1  UNL1        0.0737
      3 C         140.7242  144.4501  161.1969 C.3     1  UNL1        0.0359
      4 C         139.9769  144.8023  162.4489 C.3     1  UNL1        0.0901
      5 C         140.6847  144.7973  163.7714 C.3     1  UNL1        0.1911
      6 F         139.9373  145.1495  165.0234 F       1  UNL1       -0.2343
      7 C         142.1398  144.4400  163.8419 C.3     1  UNL1        0.1092
      8 N         138.5217  145.1596  162.3784 N.3     1  UNL1       -0.2913
      9 H         138.2724  145.1855  161.3897 H       1  UNL1        0.1236
     10 C         137.5032  144.2941  163.0592 C.3     1  UNL1        0.1153
     11 C         137.8062  142.8502  163.3295 C.ar    1  UNL1        0.0782
     12 C         137.8641  141.8708  162.1947 C.ar    1  UNL1        0.0562
     13 C         138.1671  140.4269  162.4650 C.ar    1  UNL1        0.1752
     14 C         138.4124  139.9622  163.8700 C.ar    1  UNL1        0.1914
     15 C         138.3545  140.9415  165.0047 C.ar    1  UNL1        0.1384
     16 N         138.0515  142.3855  164.7344 N.ar    1  UNL1       -0.2434
     17 O         138.7154  138.5182  164.1402 O.3     1  UNL1       -0.4668
     18 C         138.7732  137.5389  163.0055 C.3     1  UNL1        0.2527
     19 C         138.5280  138.0035  161.6006 C.3     1  UNL1        0.2526
     20 O         138.2249  139.4475  161.3303 O.3     1  UNL1       -0.4683
     21 C         144.3423  143.7306  162.6604 C.3     1  UNL1        0.0970
     22 C         144.7815  142.5232  163.4346 C.3     1  UNL1        0.1263
     23 C         142.7307  141.2995  167.2486 C.ar    1  UNL1        0.0699
     24 C         141.8690  140.0720  167.2763 C.ar    1  UNL1        0.0104
     25 C         141.6909  139.2525  166.0327 C.ar    1  UNL1        0.0021
     26 C         142.3745  139.6604  164.7614 C.ar    1  UNL1        0.0161
     27 C         142.1964  138.8408  163.5178 C.ar    1  UNL1        0.0063
     28 C         142.8800  139.2487  162.2464 C.ar    1  UNL1        0.0608
     29 C         143.7417  140.4762  162.2187 C.ar    1  UNL1        0.2610
     30 O         144.4253  140.8841  160.9474 O.2     1  UNL1       -0.2670
     31 N         143.9198  141.2958  163.4623 N.ar    1  UNL1       -0.2941
     32 C         143.2362  140.8878  164.7337 C.ar    1  UNL1        0.0631
     33 C         143.4143  141.7074  165.9773 C.ar    1  UNL1        0.0275
     34 N         143.0869  142.9386  169.7358 N.1     1  UNL1       -0.1908
     35 C         142.9088  142.1191  168.4922 C.1     1  UNL1        0.1005
@<TRIPOS>BOND
     1    34    35    3
     2    35    23    1
     3    23    24   ar
     4    24    25   ar
     5    25    26   ar
     6    26    27   ar
     7    27    28   ar
     8    28    29   ar
     9    29    30    2
    10    29    31   ar
    11    31    22    1
    12    22    21    1
    13    21     1    1
    14     1     2    1
    15     2     3    1
    16     3     4    1
    17     4     8    1
    18     8    10    1
    19    10    11    1
    20    11    12   ar
    21    12    13   ar
    22    13    14   ar
    23    14    15   ar
    24    15    16   ar
    25    14    17    1
    26    17    18    1
    27    18    19    1
    28    19    20    1
    29     4     5    1
    30     5     6    1
    31     5     7    1
    32    31    32   ar
    33    32    33   ar
    34    33    23   ar
    35    32    26   ar
    36     7     1    1
    37    16    11   ar
    38    20    13    1
    39     8     9    1
@<TRIPOS>MOLECULE
*****
 35 39 0 0 0
SMALL
GASTEIGER

@<TRIPOS>ATOM
      1 N         141.4302  138.1612  164.3790 N.3     1  UNL1       -0.2687
      2 C         142.4318  138.4685  165.4525 C.3     1  UNL1        0.0737
      3 C         143.7383  139.1138  165.0967 C.3     1  UNL1        0.0359
      4 C         144.0432  139.4519  163.6675 C.3     1  UNL1        0.0901
      5 C         143.0416  139.1446  162.5940 C.3     1  UNL1        0.1911
      6 F         143.3465  139.4827  161.1647 F       1  UNL1       -0.2343
      7 C         141.7351  138.4993  162.9498 C.3     1  UNL1        0.1092
      8 N         145.3497  140.0972  163.3117 N.3     1  UNL1       -0.2913
      9 H         145.5216  139.8911  162.3276 H       1  UNL1        0.1236
     10 C         145.5260  141.5772  163.4813 C.3     1  UNL1        0.1153
     11 C         144.3680  142.5019  163.2489 C.ar    1  UNL1        0.0782
     12 C         143.9666  142.8643  161.8498 C.ar    1  UNL1        0.0562
     13 C         142.8087  143.7890  161.6175 C.ar    1  UNL1        0.1752
     14 C         142.0520  144.3513  162.7843 C.ar    1  UNL1        0.1914
     15 C         142.4534  143.9889  164.1834 C.ar    1  UNL1        0.1384
     16 N         143.6115  143.0641  164.4157 N.ar    1  UNL1       -0.2434
     17 O         140.8941  145.2760  162.5520 O.3     1  UNL1       -0.4668
     18 C         140.4927  145.6384  161.1529 C.3     1  UNL1        0.2527
     19 C         141.2492  145.0761  159.9861 C.3     1  UNL1        0.2526
     20 O         142.4073  144.1514  160.2184 O.3     1  UNL1       -0.4683
     21 C         140.1237  137.5159  164.7348 C.3     1  UNL1        0.0970
     22 C         138.9797  138.3561  165.2200 C.3     1  UNL1        0.1263
     23 C         140.4543  141.4294  168.1577 C.ar    1  UNL1        0.0699
     24 C         140.3948  142.8875  167.8110 C.ar    1  UNL1        0.0104
     25 C         139.8438  143.3212  166.4850 C.ar    1  UNL1        0.0021
     26 C         139.3523  142.2968  165.5058 C.ar    1  UNL1        0.0161
     27 C         138.8012  142.7306  164.1798 C.ar    1  UNL1        0.0063
     28 C         138.3097  141.7062  163.2006 C.ar    1  UNL1        0.0608
     29 C         138.3692  140.2480  163.5473 C.ar    1  UNL1        0.2610
     30 O         137.8776  139.2236  162.5680 O.2     1  UNL1       -0.2670
     31 N         138.9202  139.8142  164.8732 N.ar    1  UNL1       -0.2941
     32 C         139.4118  140.8387  165.8525 C.ar    1  UNL1        0.0631
     33 C         139.9628  140.4050  167.1785 C.ar    1  UNL1        0.0275
     34 N         141.5564  140.5619  170.8097 N.1     1  UNL1       -0.1908
     35 C         141.0054  140.9956  169.4837 C.1     1  UNL1        0.1005
@<TRIPOS>BOND
     1    34    35    3
     2    35    23    1
     3    23    24   ar
     4    24    25   ar
     5    25    26   ar
     6    26    27   ar
     7    27    28   ar
     8    28    29   ar
     9    29    30    2
    10    29    31   ar
    11    31    22    1
    12    22    21    1
    13    21     1    1
    14     1     2    1
    15     2     3    1
    16     3     4    1
    17     4     8    1
    18     8    10    1
    19    10    11    1
    20    11    12   ar
    21    12    13   ar
    22    13    14   ar
    23    14    15   ar
    24    15    16   ar
    25    14    17    1
    26    17    18    1
    27    18    19    1
    28    19    20    1
    29     4     5    1
    30     5     6    1
    31     5     7    1
    32    31    32   ar
    33    32    33   ar
    34    33    23   ar
    35    32    26   ar
    36     7     1    1
    37    16    11   ar
    38    20    13    1
    39     8     9    1
