@<TRIPOS>MOLECULE
*****
 33 36 0 0 0
SMALL
GASTEIGER

@<TRIPOS>ATOM
      1 O         141.8518  141.1765  158.2724 O.2     1  UNL1       -0.2522
      2 C         141.2956  140.6473  159.5610 C.2     1  UNL1        0.3079
      3 N         141.0566  141.5778  160.7130 N.am    1  UNL1       -0.2844
      4 N         140.9783  139.1876  159.6976 N.am    1  UNL1       -0.2448
      5 H         140.6916  141.2305  161.5588 H       1  UNL1        0.1513
      6 C         140.4220  138.6584  160.9862 C.ar    1  UNL1        0.0553
      7 C         141.3455  138.1050  162.0306 C.ar    1  UNL1        0.0158
      8 C         140.7893  137.5758  163.3192 C.ar    1  UNL1        0.0127
      9 C         139.3095  137.6000  163.5634 C.ar    1  UNL1        0.0578
     10 CL        138.7532  137.0707  164.8520 Cl      1  UNL1       -0.0822
     11 C         138.3860  138.1534  162.5190 C.ar    1  UNL1        0.0127
     12 C         138.9422  138.6826  161.2304 C.ar    1  UNL1        0.0158
     13 C         141.2172  138.2572  158.5456 C.3     1  UNL1        0.0840
     14 C         142.5650  137.6259  158.3584 C.3     1  UNL1        0.0376
     15 C         142.8039  136.6955  157.2064 C.3     1  UNL1        0.0741
     16 N         141.6951  136.3963  156.2415 N.3     1  UNL1       -0.2688
     17 C         140.3474  137.0276  156.4286 C.3     1  UNL1        0.0741
     18 C         140.1084  137.9581  157.5806 C.3     1  UNL1        0.0376
     19 C         141.9341  135.4659  155.0895 C.3     1  UNL1        0.1008
     20 C         142.3476  134.0468  155.3448 C.ar    1  UNL1        0.0164
     21 C         143.7811  133.7265  155.6489 C.ar    1  UNL1        0.0212
     22 C         144.1947  132.3074  155.9043 C.ar    1  UNL1        0.1219
     23 N         143.1747  131.2086  155.8555 N.ar    1  UNL1       -0.1464
     24 N         141.7412  131.5289  155.5514 N.ar    1  UNL1       -0.1466
     25 C         141.3277  132.9480  155.2961 C.ar    1  UNL1        0.1192
     26 C         141.3740  143.0374  160.5764 C.3     1  UNL1        0.1177
     27 C         142.1028  143.7526  161.6753 C.ar    1  UNL1       -0.0024
     28 C         143.5795  143.5543  161.8487 C.ar    1  UNL1       -0.0003
     29 C         144.3083  144.2694  162.9475 C.ar    1  UNL1        0.0294
     30 C         143.5604  145.1828  163.8729 C.ar    1  UNL1        0.1401
     31 F         144.2893  145.8979  164.9718 F       1  UNL1       -0.2042
     32 C         142.0838  145.3811  163.6995 C.ar    1  UNL1        0.0294
     33 C         141.3550  144.6660  162.6007 C.ar    1  UNL1       -0.0003
@<TRIPOS>BOND
     1     1     2    2
     2     2     3   am
     3     3    26    1
     4    26    27    1
     5    27    28   ar
     6    28    29   ar
     7    29    30   ar
     8    30    31    1
     9    30    32   ar
    10    32    33   ar
    11     2     4   am
    12     4     6    1
    13     6     7   ar
    14     7     8   ar
    15     8     9   ar
    16     9    10    1
    17     9    11   ar
    18    11    12   ar
    19     4    13    1
    20    13    14    1
    21    14    15    1
    22    15    16    1
    23    16    19    1
    24    19    20    1
    25    20    21   ar
    26    21    22   ar
    27    22    23   ar
    28    23    24   ar
    29    24    25   ar
    30    16    17    1
    31    17    18    1
    32    33    27   ar
    33    12     6   ar
    34    18    13    1
    35    25    20   ar
    36     3     5    1
@<TRIPOS>MOLECULE
*****
 33 36 0 0 0
SMALL
GASTEIGER

@<TRIPOS>ATOM
      1 O         142.4959  141.7307  159.1650 O.2     1  UNL1       -0.2522
      2 C         141.6807  142.1008  160.3685 C.2     1  UNL1        0.3079
      3 N         141.8575  141.3488  161.6543 N.am    1  UNL1       -0.2844
      4 N         140.6887  143.2229  160.2862 N.am    1  UNL1       -0.2448
      5 H         141.3224  141.5917  162.4442 H       1  UNL1        0.1513
      6 C         139.8734  143.5930  161.4897 C.ar    1  UNL1        0.0553
      7 C         138.5451  142.9377  161.7261 C.ar    1  UNL1        0.0158
      8 C         137.7298  143.3078  162.9296 C.ar    1  UNL1        0.0127
      9 C         138.2430  144.3332  163.8967 C.ar    1  UNL1        0.0578
     10 CL        137.4277  144.7033  165.1002 Cl      1  UNL1       -0.0822
     11 C         139.5713  144.9885  163.6602 C.ar    1  UNL1        0.0127
     12 C         140.3866  144.6184  162.4567 C.ar    1  UNL1        0.0158
     13 C         140.5119  143.9749  159.0004 C.3     1  UNL1        0.0840
     14 C         141.4060  145.1365  158.6819 C.3     1  UNL1        0.0376
     15 C         141.2292  145.8885  157.3961 C.3     1  UNL1        0.0741
     16 N         140.1584  145.4789  156.4289 N.3     1  UNL1       -0.2688
     17 C         139.2644  144.3174  156.7473 C.3     1  UNL1        0.0741
     18 C         139.4411  143.5653  158.0331 C.3     1  UNL1        0.0376
     19 C         139.9817  146.2309  155.1431 C.3     1  UNL1        0.1008
     20 C         139.5846  147.6773  155.1686 C.ar    1  UNL1        0.0164
     21 C         139.9740  148.5819  154.0372 C.ar    1  UNL1        0.0212
     22 C         139.5770  150.0282  154.0627 C.ar    1  UNL1        0.1219
     23 N         138.7906  150.5698  155.2195 N.ar    1  UNL1       -0.1464
     24 N         138.4012  149.6652  156.3509 N.ar    1  UNL1       -0.1466
     25 C         138.7982  148.2188  156.3254 C.ar    1  UNL1        0.1192
     26 C         142.8495  140.2267  161.7365 C.3     1  UNL1        0.1177
     27 C         143.1643  139.5996  163.0623 C.ar    1  UNL1       -0.0024
     28 C         144.5371  139.7384  163.6506 C.ar    1  UNL1       -0.0003
     29 C         144.8518  139.1112  164.9763 C.ar    1  UNL1        0.0294
     30 C         143.7937  138.3453  165.7138 C.ar    1  UNL1        0.1401
     31 F         144.1085  137.7182  167.0396 F       1  UNL1       -0.2042
     32 C         142.4209  138.2065  165.1255 C.ar    1  UNL1        0.0294
     33 C         142.1062  138.8337  163.7998 C.ar    1  UNL1       -0.0003
@<TRIPOS>BOND
     1     1     2    2
     2     2     3   am
     3     3    26    1
     4    26    27    1
     5    27    28   ar
     6    28    29   ar
     7    29    30   ar
     8    30    31    1
     9    30    32   ar
    10    32    33   ar
    11     2     4   am
    12     4     6    1
    13     6     7   ar
    14     7     8   ar
    15     8     9   ar
    16     9    10    1
    17     9    11   ar
    18    11    12   ar
    19     4    13    1
    20    13    14    1
    21    14    15    1
    22    15    16    1
    23    16    19    1
    24    19    20    1
    25    20    21   ar
    26    21    22   ar
    27    22    23   ar
    28    23    24   ar
    29    24    25   ar
    30    16    17    1
    31    17    18    1
    32    33    27   ar
    33    12     6   ar
    34    18    13    1
    35    25    20   ar
    36     3     5    1
@<TRIPOS>MOLECULE
*****
 33 36 0 0 0
SMALL
GASTEIGER

@<TRIPOS>ATOM
      1 O         140.2313  137.4387  162.3300 O.2     1  UNL1       -0.2522
      2 C         140.1804  138.9375  162.2993 C.2     1  UNL1        0.3079
      3 N         139.7562  139.6987  163.5203 N.am    1  UNL1       -0.2844
      4 N         140.5539  139.6751  161.0478 N.am    1  UNL1       -0.2448
      5 H         139.7228  140.6824  163.5002 H       1  UNL1        0.1513
      6 C         140.5031  141.1740  161.0171 C.ar    1  UNL1        0.0553
      7 C         141.7324  141.9727  161.3345 C.ar    1  UNL1        0.0158
      8 C         141.6815  143.4715  161.3038 C.ar    1  UNL1        0.0127
      9 C         140.4014  144.1716  160.9558 C.ar    1  UNL1        0.0578
     10 CL        140.3506  145.6704  160.9251 Cl      1  UNL1       -0.0822
     11 C         139.1721  143.3728  160.6385 C.ar    1  UNL1        0.0127
     12 C         139.2229  141.8740  160.6692 C.ar    1  UNL1        0.0158
     13 C         140.9782  138.9140  159.8269 C.3     1  UNL1        0.0840
     14 C         142.3991  138.4545  159.6857 C.3     1  UNL1        0.0376
     15 C         142.8234  137.6933  158.4648 C.3     1  UNL1        0.0741
     16 N         141.8268  137.3915  157.3852 N.3     1  UNL1       -0.2688
     17 C         140.4059  137.8509  157.5264 C.3     1  UNL1        0.0741
     18 C         139.9815  138.6122  158.7473 C.3     1  UNL1        0.0376
     19 C         142.2510  136.6304  156.1643 C.3     1  UNL1        0.1008
     20 C         142.2012  135.1311  156.1602 C.ar    1  UNL1        0.0164
     21 C         141.3095  134.4130  155.1911 C.ar    1  UNL1        0.0212
     22 C         141.2597  132.9139  155.1870 C.ar    1  UNL1        0.1219
     23 N         142.1016  132.1328  156.1520 N.ar    1  UNL1       -0.1464
     24 N         142.9933  132.8509  157.1211 N.ar    1  UNL1       -0.1466
     25 C         143.0431  134.3502  157.1252 C.ar    1  UNL1        0.1192
     26 C         139.3827  138.9610  164.7718 C.3     1  UNL1        0.1177
     27 C         140.0106  139.3387  166.0807 C.ar    1  UNL1       -0.0024
     28 C         141.5030  139.3183  166.2302 C.ar    1  UNL1       -0.0003
     29 C         142.1308  139.6960  167.5391 C.ar    1  UNL1        0.0294
     30 C         141.2663  140.0941  168.6984 C.ar    1  UNL1        0.1401
     31 F         141.8942  140.4718  170.0073 F       1  UNL1       -0.2042
     32 C         139.7739  140.1145  168.5489 C.ar    1  UNL1        0.0294
     33 C         139.1461  139.7368  167.2401 C.ar    1  UNL1       -0.0003
@<TRIPOS>BOND
     1     1     2    2
     2     2     3   am
     3     3    26    1
     4    26    27    1
     5    27    28   ar
     6    28    29   ar
     7    29    30   ar
     8    30    31    1
     9    30    32   ar
    10    32    33   ar
    11     2     4   am
    12     4     6    1
    13     6     7   ar
    14     7     8   ar
    15     8     9   ar
    16     9    10    1
    17     9    11   ar
    18    11    12   ar
    19     4    13    1
    20    13    14    1
    21    14    15    1
    22    15    16    1
    23    16    19    1
    24    19    20    1
    25    20    21   ar
    26    21    22   ar
    27    22    23   ar
    28    23    24   ar
    29    24    25   ar
    30    16    17    1
    31    17    18    1
    32    33    27   ar
    33    12     6   ar
    34    18    13    1
    35    25    20   ar
    36     3     5    1
@<TRIPOS>MOLECULE
*****
 33 36 0 0 0
SMALL
GASTEIGER

@<TRIPOS>ATOM
      1 O         142.6312  138.1148  162.8316 O.2     1  UNL1       -0.2522
      2 C         142.2189  139.5528  162.9409 C.2     1  UNL1        0.3079
      3 N         142.2313  140.2372  164.2757 N.am    1  UNL1       -0.2844
      4 N         141.7941  140.3065  161.7156 N.am    1  UNL1       -0.2448
      5 H         141.9607  141.1810  164.3475 H       1  UNL1        0.1513
      6 C         141.3817  141.7446  161.8250 C.ar    1  UNL1        0.0553
      7 C         139.9449  142.0959  162.0745 C.ar    1  UNL1        0.0158
      8 C         139.5326  143.5339  162.1838 C.ar    1  UNL1        0.0127
      9 C         140.5569  144.6207  162.0437 C.ar    1  UNL1        0.0578
     10 CL        140.1446  146.0587  162.1531 Cl      1  UNL1       -0.0822
     11 C         141.9937  144.2693  161.7942 C.ar    1  UNL1        0.0127
     12 C         142.4061  142.8313  161.6849 C.ar    1  UNL1        0.0158
     13 C         141.7816  139.6221  160.3809 C.3     1  UNL1        0.0840
     14 C         140.5184  138.9930  159.8724 C.3     1  UNL1        0.0376
     15 C         140.5059  138.3086  158.5377 C.3     1  UNL1        0.0741
     16 N         141.7567  138.2533  157.7115 N.3     1  UNL1       -0.2688
     17 C         143.0198  138.8824  158.2200 C.3     1  UNL1        0.0741
     18 C         143.0323  139.5668  159.5547 C.3     1  UNL1        0.0376
     19 C         141.7442  137.5690  156.3768 C.3     1  UNL1        0.1008
     20 C         141.9592  136.0868  156.2919 C.ar    1  UNL1        0.0164
     21 C         141.1608  135.2676  155.3216 C.ar    1  UNL1        0.0212
     22 C         141.3757  133.7855  155.2367 C.ar    1  UNL1        0.1219
     23 N         142.3891  133.1226  156.1220 N.ar    1  UNL1       -0.1464
     24 N         143.1875  133.9419  157.0922 N.ar    1  UNL1       -0.1466
     25 C         142.9725  135.4240  157.1772 C.ar    1  UNL1        0.1192
     26 C         142.6561  139.4835  165.5010 C.3     1  UNL1        0.1177
     27 C         141.9041  139.6579  166.7872 C.ar    1  UNL1       -0.0024
     28 C         140.4363  139.9660  166.7619 C.ar    1  UNL1       -0.0003
     29 C         139.6843  140.1403  168.0480 C.ar    1  UNL1        0.0294
     30 C         140.4001  140.0066  169.3594 C.ar    1  UNL1        0.1401
     31 F         139.6480  140.1809  170.6455 F       1  UNL1       -0.2042
     32 C         141.8679  139.6984  169.3847 C.ar    1  UNL1        0.0294
     33 C         142.6198  139.5241  168.0986 C.ar    1  UNL1       -0.0003
@<TRIPOS>BOND
     1     1     2    2
     2     2     3   am
     3     3    26    1
     4    26    27    1
     5    27    28   ar
     6    28    29   ar
     7    29    30   ar
     8    30    31    1
     9    30    32   ar
    10    32    33   ar
    11     2     4   am
    12     4     6    1
    13     6     7   ar
    14     7     8   ar
    15     8     9   ar
    16     9    10    1
    17     9    11   ar
    18    11    12   ar
    19     4    13    1
    20    13    14    1
    21    14    15    1
    22    15    16    1
    23    16    19    1
    24    19    20    1
    25    20    21   ar
    26    21    22   ar
    27    22    23   ar
    28    23    24   ar
    29    24    25   ar
    30    16    17    1
    31    17    18    1
    32    33    27   ar
    33    12     6   ar
    34    18    13    1
    35    25    20   ar
    36     3     5    1
@<TRIPOS>MOLECULE
*****
 33 36 0 0 0
SMALL
GASTEIGER

@<TRIPOS>ATOM
      1 O         139.4769  138.3921  163.5670 O.2     1  UNL1       -0.2522
      2 C         139.5028  139.8919  163.5587 C.2     1  UNL1        0.3079
      3 N         139.2657  140.6532  164.8293 N.am    1  UNL1       -0.2844
      4 N         139.7659  140.6304  162.2799 N.am    1  UNL1       -0.2448
      5 H         139.2827  141.6375  164.8239 H       1  UNL1        0.1513
      6 C         139.7918  142.1301  162.2716 C.ar    1  UNL1        0.0553
      7 C         141.0938  142.8568  162.1084 C.ar    1  UNL1        0.0158
      8 C         141.1198  144.3566  162.1001 C.ar    1  UNL1        0.0127
      9 C         139.8437  145.1297  162.2550 C.ar    1  UNL1        0.0578
     10 CL        139.8696  146.6294  162.2467 Cl      1  UNL1       -0.0822
     11 C         138.5417  144.4029  162.4182 C.ar    1  UNL1        0.0127
     12 C         138.5158  142.9032  162.4265 C.ar    1  UNL1        0.0158
     13 C         140.0030  139.8691  161.0094 C.3     1  UNL1        0.0840
     14 C         141.2648  139.0770  160.8340 C.3     1  UNL1        0.0376
     15 C         141.5019  138.3158  159.5635 C.3     1  UNL1        0.0741
     16 N         140.4774  138.3466  158.4684 N.3     1  UNL1       -0.2688
     17 C         139.2157  139.1386  158.6437 C.3     1  UNL1        0.0741
     18 C         138.9785  139.8999  159.9143 C.3     1  UNL1        0.0376
     19 C         140.7145  137.5853  157.1979 C.3     1  UNL1        0.1008
     20 C         142.0988  137.4896  156.6281 C.ar    1  UNL1        0.0164
     21 C         142.6791  136.1487  156.2886 C.ar    1  UNL1        0.0212
     22 C         144.0633  136.0530  155.7188 C.ar    1  UNL1        0.1219
     23 N         144.8674  137.2983  155.4885 N.ar    1  UNL1       -0.1464
     24 N         144.2871  138.6392  155.8281 N.ar    1  UNL1       -0.1466
     25 C         142.9028  138.7348  156.3979 C.ar    1  UNL1        0.1192
     26 C         139.0026  139.9147  166.1081 C.3     1  UNL1        0.1177
     27 C         140.0480  139.8808  167.1834 C.ar    1  UNL1       -0.0024
     28 C         141.4861  139.6515  166.8243 C.ar    1  UNL1       -0.0003
     29 C         142.5314  139.6177  167.8995 C.ar    1  UNL1        0.0294
     30 C         142.1385  139.8132  169.3339 C.ar    1  UNL1        0.1401
     31 F         143.1839  139.7794  170.4092 F       1  UNL1       -0.2042
     32 C         140.7003  140.0425  169.6930 C.ar    1  UNL1        0.0294
     33 C         139.6550  140.0763  168.6178 C.ar    1  UNL1       -0.0003
@<TRIPOS>BOND
     1     1     2    2
     2     2     3   am
     3     3    26    1
     4    26    27    1
     5    27    28   ar
     6    28    29   ar
     7    29    30   ar
     8    30    31    1
     9    30    32   ar
    10    32    33   ar
    11     2     4   am
    12     4     6    1
    13     6     7   ar
    14     7     8   ar
    15     8     9   ar
    16     9    10    1
    17     9    11   ar
    18    11    12   ar
    19     4    13    1
    20    13    14    1
    21    14    15    1
    22    15    16    1
    23    16    19    1
    24    19    20    1
    25    20    21   ar
    26    21    22   ar
    27    22    23   ar
    28    23    24   ar
    29    24    25   ar
    30    16    17    1
    31    17    18    1
    32    33    27   ar
    33    12     6   ar
    34    18    13    1
    35    25    20   ar
    36     3     5    1
@<TRIPOS>MOLECULE
*****
 33 36 0 0 0
SMALL
GASTEIGER

@<TRIPOS>ATOM
      1 O         143.1760  144.1713  163.9224 O.2     1  UNL1       -0.2522
      2 C         142.3903  142.8940  163.9579 C.2     1  UNL1        0.3079
      3 N         142.3798  142.0542  165.2009 N.am    1  UNL1       -0.2844
      4 N         141.6152  142.4564  162.7506 N.am    1  UNL1       -0.2448
      5 H         141.8642  141.2159  165.2242 H       1  UNL1        0.1513
      6 C         140.8296  141.1791  162.7861 C.ar    1  UNL1        0.0553
      7 C         139.4314  141.1734  163.3291 C.ar    1  UNL1        0.0158
      8 C         138.6457  139.8961  163.3646 C.ar    1  UNL1        0.0127
      9 C         139.2583  138.6245  162.8571 C.ar    1  UNL1        0.0578
     10 CL        138.4727  137.3472  162.8926 Cl      1  UNL1       -0.0822
     11 C         140.6565  138.6301  162.3141 C.ar    1  UNL1        0.0127
     12 C         141.4422  139.9075  162.2786 C.ar    1  UNL1        0.0158
     13 C         141.6258  143.2961  161.5078 C.3     1  UNL1        0.0840
     14 C         140.7319  144.4964  161.4059 C.3     1  UNL1        0.0376
     15 C         140.7424  145.3361  160.1631 C.3     1  UNL1        0.0741
     16 N         141.6469  144.9757  159.0220 N.3     1  UNL1       -0.2688
     17 C         142.5408  143.7754  159.1238 C.3     1  UNL1        0.0741
     18 C         142.5302  142.9356  160.3667 C.3     1  UNL1        0.0376
     19 C         141.6574  145.8154  157.7792 C.3     1  UNL1        0.1008
     20 C         140.4683  145.8167  156.8648 C.ar    1  UNL1        0.0164
     21 C         139.7882  144.5257  156.5170 C.ar    1  UNL1        0.0212
     22 C         138.5992  144.5270  155.6027 C.ar    1  UNL1        0.1219
     23 N         138.0902  145.8192  155.0360 N.ar    1  UNL1       -0.1464
     24 N         138.7703  147.1102  155.3837 N.ar    1  UNL1       -0.1466
     25 C         139.9594  147.1089  156.2981 C.ar    1  UNL1        0.1192
     26 C         143.1549  142.4918  166.4082 C.3     1  UNL1        0.1177
     27 C         142.5312  142.4102  167.7700 C.ar    1  UNL1       -0.0024
     28 C         141.0384  142.4342  167.9139 C.ar    1  UNL1       -0.0003
     29 C         140.4147  142.3525  169.2756 C.ar    1  UNL1        0.0294
     30 C         141.2840  142.2469  170.4935 C.ar    1  UNL1        0.1401
     31 F         140.6603  142.1653  171.8553 F       1  UNL1       -0.2042
     32 C         142.7769  142.2229  170.3497 C.ar    1  UNL1        0.0294
     33 C         143.4005  142.3046  168.9879 C.ar    1  UNL1       -0.0003
@<TRIPOS>BOND
     1     1     2    2
     2     2     3   am
     3     3    26    1
     4    26    27    1
     5    27    28   ar
     6    28    29   ar
     7    29    30   ar
     8    30    31    1
     9    30    32   ar
    10    32    33   ar
    11     2     4   am
    12     4     6    1
    13     6     7   ar
    14     7     8   ar
    15     8     9   ar
    16     9    10    1
    17     9    11   ar
    18    11    12   ar
    19     4    13    1
    20    13    14    1
    21    14    15    1
    22    15    16    1
    23    16    19    1
    24    19    20    1
    25    20    21   ar
    26    21    22   ar
    27    22    23   ar
    28    23    24   ar
    29    24    25   ar
    30    16    17    1
    31    17    18    1
    32    33    27   ar
    33    12     6   ar
    34    18    13    1
    35    25    20   ar
    36     3     5    1
@<TRIPOS>MOLECULE
*****
 33 36 0 0 0
SMALL
GASTEIGER

@<TRIPOS>ATOM
      1 O         142.8823  137.9929  162.3685 O.2     1  UNL1       -0.2522
      2 C         142.4397  139.2826  161.7434 C.2     1  UNL1        0.3079
      3 N         142.4536  139.4365  160.2513 N.am    1  UNL1       -0.2844
      4 N         141.9832  140.4184  162.6103 N.am    1  UNL1       -0.2448
      5 H         142.1631  140.2830  159.8411 H       1  UNL1        0.1513
      6 C         141.5406  141.7081  161.9852 C.ar    1  UNL1        0.0553
      7 C         140.1071  141.8945  161.5849 C.ar    1  UNL1        0.0158
      8 C         139.6646  143.1842  160.9598 C.ar    1  UNL1        0.0127
      9 C         140.6555  144.2876  160.7351 C.ar    1  UNL1        0.0578
     10 CL        140.2129  145.5773  160.1100 Cl      1  UNL1       -0.0822
     11 C         142.0890  144.1013  161.1354 C.ar    1  UNL1        0.0127
     12 C         142.5316  142.8115  161.7605 C.ar    1  UNL1        0.0158
     13 C         141.9693  140.2645  164.1023 C.3     1  UNL1        0.0840
     14 C         140.7422  139.7452  164.7913 C.3     1  UNL1        0.0376
     15 C         140.7283  139.5912  166.2833 C.3     1  UNL1        0.0741
     16 N         141.9415  139.9566  167.0863 N.3     1  UNL1       -0.2688
     17 C         143.1685  140.4758  166.3974 C.3     1  UNL1        0.0741
     18 C         143.1824  140.6298  164.9053 C.3     1  UNL1        0.0376
     19 C         141.9275  139.8026  168.5783 C.3     1  UNL1        0.1008
     20 C         141.2929  140.8576  169.4353 C.ar    1  UNL1        0.0164
     21 C         140.9576  142.1975  168.8503 C.ar    1  UNL1        0.0212
     22 C         140.3230  143.2524  169.7072 C.ar    1  UNL1        0.1219
     23 N         140.0236  142.9675  171.1492 N.ar    1  UNL1       -0.1464
     24 N         140.3589  141.6276  171.7342 N.ar    1  UNL1       -0.1466
     25 C         140.9936  140.5726  170.8772 C.ar    1  UNL1        0.1192
     26 C         142.9101  138.3008  159.3844 C.3     1  UNL1        0.1177
     27 C         142.0501  137.8316  158.2484 C.ar    1  UNL1       -0.0024
     28 C         140.6351  138.3151  158.1297 C.ar    1  UNL1       -0.0003
     29 C         139.7752  137.8459  156.9937 C.ar    1  UNL1        0.0294
     30 C         140.3303  136.8934  155.9765 C.ar    1  UNL1        0.1401
     31 F         139.4703  136.4243  154.8405 F       1  UNL1       -0.2042
     32 C         141.7452  136.4100  156.0953 C.ar    1  UNL1        0.0294
     33 C         142.6052  136.8791  157.2313 C.ar    1  UNL1       -0.0003
@<TRIPOS>BOND
     1     1     2    2
     2     2     3   am
     3     3    26    1
     4    26    27    1
     5    27    28   ar
     6    28    29   ar
     7    29    30   ar
     8    30    31    1
     9    30    32   ar
    10    32    33   ar
    11     2     4   am
    12     4     6    1
    13     6     7   ar
    14     7     8   ar
    15     8     9   ar
    16     9    10    1
    17     9    11   ar
    18    11    12   ar
    19     4    13    1
    20    13    14    1
    21    14    15    1
    22    15    16    1
    23    16    19    1
    24    19    20    1
    25    20    21   ar
    26    21    22   ar
    27    22    23   ar
    28    23    24   ar
    29    24    25   ar
    30    16    17    1
    31    17    18    1
    32    33    27   ar
    33    12     6   ar
    34    18    13    1
    35    25    20   ar
    36     3     5    1
@<TRIPOS>MOLECULE
*****
 33 36 0 0 0
SMALL
GASTEIGER

@<TRIPOS>ATOM
      1 O         141.4632  144.4804  163.1066 O.2     1  UNL1       -0.2522
      2 C         141.6566  143.3691  162.1178 C.2     1  UNL1        0.3079
      3 N         141.4982  143.6351  160.6501 N.am    1  UNL1       -0.2844
      4 N         142.0085  141.9919  162.5968 N.am    1  UNL1       -0.2448
      5 H         141.6251  142.9057  160.0011 H       1  UNL1        0.1513
      6 C         142.2018  140.8806  161.6081 C.ar    1  UNL1        0.0553
      7 C         143.5806  140.5331  161.1305 C.ar    1  UNL1        0.0158
      8 C         143.7740  139.4218  160.1418 C.ar    1  UNL1        0.0127
      9 C         142.5886  138.6579  159.6306 C.ar    1  UNL1        0.0578
     10 CL        142.7820  137.5466  158.6419 Cl      1  UNL1       -0.0822
     11 C         141.2098  139.0054  160.1082 C.ar    1  UNL1        0.0127
     12 C         141.0164  140.1167  161.0969 C.ar    1  UNL1        0.0158
     13 C         142.1669  141.7260  164.0645 C.3     1  UNL1        0.0840
     14 C         141.2621  140.7462  164.7512 C.3     1  UNL1        0.0376
     15 C         141.4206  140.4803  166.2189 C.3     1  UNL1        0.0741
     16 N         142.4837  141.1942  166.9999 N.3     1  UNL1       -0.2688
     17 C         143.3884  142.1740  166.3133 C.3     1  UNL1        0.0741
     18 C         143.2300  142.4399  164.8456 C.3     1  UNL1        0.0376
     19 C         142.6421  140.9283  168.4676 C.3     1  UNL1        0.1008
     20 C         141.7442  141.6129  169.4551 C.ar    1  UNL1        0.0164
     21 C         140.9907  142.8464  169.0541 C.ar    1  UNL1        0.0212
     22 C         140.0928  143.5310  170.0415 C.ar    1  UNL1        0.1219
     23 N         139.9484  142.9822  171.4300 N.ar    1  UNL1       -0.1464
     24 N         140.7019  141.7487  171.8311 N.ar    1  UNL1       -0.1466
     25 C         141.5998  141.0641  170.8436 C.ar    1  UNL1        0.1192
     26 C         141.1464  145.0123  160.1711 C.3     1  UNL1        0.1177
     27 C         141.1498  145.3194  158.7028 C.ar    1  UNL1       -0.0024
     28 C         140.0229  146.1030  158.0978 C.ar    1  UNL1       -0.0003
     29 C         140.0264  146.4100  156.6297 C.ar    1  UNL1        0.0294
     30 C         141.1568  145.9336  155.7665 C.ar    1  UNL1        0.1401
     31 F         141.1603  146.2408  154.2982 F       1  UNL1       -0.2042
     32 C         142.2838  145.1501  156.3714 C.ar    1  UNL1        0.0294
     33 C         142.2803  144.8430  157.8396 C.ar    1  UNL1       -0.0003
@<TRIPOS>BOND
     1     1     2    2
     2     2     3   am
     3     3    26    1
     4    26    27    1
     5    27    28   ar
     6    28    29   ar
     7    29    30   ar
     8    30    31    1
     9    30    32   ar
    10    32    33   ar
    11     2     4   am
    12     4     6    1
    13     6     7   ar
    14     7     8   ar
    15     8     9   ar
    16     9    10    1
    17     9    11   ar
    18    11    12   ar
    19     4    13    1
    20    13    14    1
    21    14    15    1
    22    15    16    1
    23    16    19    1
    24    19    20    1
    25    20    21   ar
    26    21    22   ar
    27    22    23   ar
    28    23    24   ar
    29    24    25   ar
    30    16    17    1
    31    17    18    1
    32    33    27   ar
    33    12     6   ar
    34    18    13    1
    35    25    20   ar
    36     3     5    1
@<TRIPOS>MOLECULE
*****
 33 36 0 0 0
SMALL
GASTEIGER

@<TRIPOS>ATOM
      1 O         140.3746  138.2991  162.2877 O.2     1  UNL1       -0.2522
      2 C         140.1443  139.7309  161.9045 C.2     1  UNL1        0.3079
      3 N         139.6462  140.0687  160.5304 N.am    1  UNL1       -0.2844
      4 N         140.4120  140.8249  162.8951 N.am    1  UNL1       -0.2448
      5 H         139.4950  141.0085  160.2789 H       1  UNL1        0.1513
      6 C         140.1817  142.2567  162.5119 C.ar    1  UNL1        0.0553
      7 C         141.2271  143.0033  161.7375 C.ar    1  UNL1        0.0158
      8 C         140.9968  144.4351  161.3542 C.ar    1  UNL1        0.0127
      9 C         139.7211  145.1203  161.7453 C.ar    1  UNL1        0.0578
     10 CL        139.4908  146.5521  161.3621 Cl      1  UNL1       -0.0822
     11 C         138.6757  144.3737  162.5198 C.ar    1  UNL1        0.0127
     12 C         138.9060  142.9419  162.9030 C.ar    1  UNL1        0.0158
     13 C         140.9101  140.4871  164.2691 C.3     1  UNL1        0.0840
     14 C         139.9373  140.1205  165.3504 C.3     1  UNL1        0.0376
     15 C         140.4353  139.7827  166.7244 C.3     1  UNL1        0.0741
     16 N         141.9062  139.8114  167.0170 N.3     1  UNL1       -0.2688
     17 C         142.8790  140.1779  165.9358 C.3     1  UNL1        0.0741
     18 C         142.3810  140.5158  164.5617 C.3     1  UNL1        0.0376
     19 C         142.4043  139.4735  168.3910 C.3     1  UNL1        0.1008
     20 C         142.1555  140.4155  169.5316 C.ar    1  UNL1        0.0164
     21 C         142.9586  141.6767  169.6516 C.ar    1  UNL1        0.0212
     22 C         142.7099  142.6186  170.7921 C.ar    1  UNL1        0.1219
     23 N         141.6580  142.2993  171.8128 N.ar    1  UNL1       -0.1464
     24 N         140.8549  141.0381  171.6928 N.ar    1  UNL1       -0.1466
     25 C         141.1037  140.0962  170.5522 C.ar    1  UNL1        0.1192
     26 C         139.3785  138.9748  159.5397 C.3     1  UNL1        0.1177
     27 C         140.3522  138.7140  158.4289 C.ar    1  UNL1       -0.0024
     28 C         139.9420  138.9391  157.0038 C.ar    1  UNL1       -0.0003
     29 C         140.9157  138.6784  155.8930 C.ar    1  UNL1        0.0294
     30 C         142.2996  138.1926  156.2073 C.ar    1  UNL1        0.1401
     31 F         143.2734  137.9319  155.0965 F       1  UNL1       -0.2042
     32 C         142.7098  137.9675  157.6325 C.ar    1  UNL1        0.0294
     33 C         141.7361  138.2282  158.7432 C.ar    1  UNL1       -0.0003
@<TRIPOS>BOND
     1     1     2    2
     2     2     3   am
     3     3    26    1
     4    26    27    1
     5    27    28   ar
     6    28    29   ar
     7    29    30   ar
     8    30    31    1
     9    30    32   ar
    10    32    33   ar
    11     2     4   am
    12     4     6    1
    13     6     7   ar
    14     7     8   ar
    15     8     9   ar
    16     9    10    1
    17     9    11   ar
    18    11    12   ar
    19     4    13    1
    20    13    14    1
    21    14    15    1
    22    15    16    1
    23    16    19    1
    24    19    20    1
    25    20    21   ar
    26    21    22   ar
    27    22    23   ar
    28    23    24   ar
    29    24    25   ar
    30    16    17    1
    31    17    18    1
    32    33    27   ar
    33    12     6   ar
    34    18    13    1
    35    25    20   ar
    36     3     5    1
