@<TRIPOS>MOLECULE
*****
 29 31 0 0 0
SMALL
GASTEIGER

@<TRIPOS>ATOM
      1 C         140.7276  140.8692  166.6855 C.2     1  UNL1        0.0106
      2 C         141.8360  139.8628  166.5931 C.2     1  UNL1        0.0576
      3 CL        142.5990  139.4722  167.8241 Cl      1  UNL1       -0.0822
      4 C         138.4387  142.0410  162.9926 C.ar    1  UNL1        0.1386
      5 C         139.7594  142.6857  163.2925 C.ar    1  UNL1        0.0369
      6 C         140.5224  142.2951  164.5235 C.ar    1  UNL1        0.0031
      7 C         139.9647  141.2598  165.4546 C.ar    1  UNL1        0.0010
      8 C         138.6439  140.6151  165.1547 C.ar    1  UNL1        0.0031
      9 C         137.8810  141.0056  163.9237 C.ar    1  UNL1        0.0369
     10 O         137.6757  142.4315  161.7616 O.3     1  UNL1       -0.4740
     11 C         138.1942  142.0526  160.4061 C.3     1  UNL1        0.2226
     12 C         138.1383  140.6234  159.9543 C.3     1  UNL1        0.1200
     13 N         139.3401  139.7395  160.1115 N.3     1  UNL1       -0.2696
     14 C         138.3840  138.1097  161.8946 C.3     1  UNL1        0.0188
     15 C         139.1823  138.3473  160.6471 C.3     1  UNL1        0.0722
     16 C         140.6996  140.2479  159.7331 C.3     1  UNL1        0.0722
     17 C         141.5819  140.8747  160.7719 C.3     1  UNL1        0.0188
     18 C         142.1814  139.2468  165.2697 C.ar    1  UNL1        0.0106
     19 C         141.3146  138.1649  164.6969 C.ar    1  UNL1        0.0008
     20 C         141.6599  137.5490  163.3735 C.ar    1  UNL1        0.0000
     21 C         142.8722  138.0150  162.6229 C.ar    1  UNL1        0.0000
     22 C         143.7390  139.0969  163.1957 C.ar    1  UNL1        0.0000
     23 C         143.3936  139.7128  164.5191 C.ar    1  UNL1        0.0008
     24 C         140.3823  141.4851  168.0089 C.ar    1  UNL1        0.0008
     25 C         139.6245  140.6906  169.0310 C.ar    1  UNL1        0.0000
     26 C         139.2792  141.3065  170.3545 C.ar    1  UNL1        0.0000
     27 C         139.6915  142.7168  170.6558 C.ar    1  UNL1        0.0000
     28 C         140.4493  143.5113  169.6337 C.ar    1  UNL1        0.0000
     29 C         140.7946  142.8955  168.3103 C.ar    1  UNL1        0.0000
@<TRIPOS>BOND
     1    14    15    1
     2    15    13    1
     3    13    16    1
     4    16    17    1
     5    13    12    1
     6    12    11    1
     7    11    10    1
     8    10     4    1
     9     4     5   ar
    10     5     6   ar
    11     6     7   ar
    12     7     1    1
    13     1     2    2
    14     2     3    1
    15     2    18    1
    16    18    19   ar
    17    19    20   ar
    18    20    21   ar
    19    21    22   ar
    20    22    23   ar
    21     1    24    1
    22    24    25   ar
    23    25    26   ar
    24    26    27   ar
    25    27    28   ar
    26    28    29   ar
    27     7     8   ar
    28     8     9   ar
    29     9     4   ar
    30    23    18   ar
    31    29    24   ar
@<TRIPOS>MOLECULE
*****
 29 31 0 0 0
SMALL
GASTEIGER

@<TRIPOS>ATOM
      1 C         141.1913  142.3912  166.3060 C.2     1  UNL1        0.0106
      2 C         142.6730  142.6064  166.2153 C.2     1  UNL1        0.0576
      3 CL        143.5284  142.4598  167.4388 Cl      1  UNL1       -0.0822
      4 C         138.6251  142.8311  162.6357 C.ar    1  UNL1        0.1386
      5 C         139.4161  141.5751  162.8517 C.ar    1  UNL1        0.0369
      6 C         140.2715  141.4285  164.0751 C.ar    1  UNL1        0.0031
      7 C         140.3359  142.5378  165.0826 C.ar    1  UNL1        0.0010
      8 C         139.5449  143.7939  164.8667 C.ar    1  UNL1        0.0031
      9 C         138.6895  143.9405  163.6432 C.ar    1  UNL1        0.0369
     10 O         137.7697  142.9778  161.4123 O.3     1  UNL1       -0.4740
     11 C         138.1015  142.2079  160.1685 C.3     1  UNL1        0.2226
     12 C         138.7965  142.8898  159.0274 C.3     1  UNL1        0.1200
     13 N         140.1667  143.4683  159.2218 N.3     1  UNL1       -0.2696
     14 C         141.9312  141.8744  160.2687 C.3     1  UNL1        0.0188
     15 C         141.3773  142.5949  159.0754 C.3     1  UNL1        0.0722
     16 C         140.3263  144.9203  159.5627 C.3     1  UNL1        0.0722
     17 C         140.7380  145.3249  160.9473 C.3     1  UNL1        0.0188
     18 C         143.2994  142.9683  164.9012 C.ar    1  UNL1        0.0106
     19 C         144.0368  141.9288  164.1103 C.ar    1  UNL1        0.0008
     20 C         144.6631  142.2906  162.7963 C.ar    1  UNL1        0.0000
     21 C         144.5520  143.6921  162.2731 C.ar    1  UNL1        0.0000
     22 C         143.8146  144.7316  163.0640 C.ar    1  UNL1        0.0000
     23 C         143.1883  144.3697  164.3781 C.ar    1  UNL1        0.0008
     24 C         140.5651  142.0293  167.6200 C.ar    1  UNL1        0.0008
     25 C         139.9835  140.6615  167.8223 C.ar    1  UNL1        0.0000
     26 C         139.3572  140.2997  169.1365 C.ar    1  UNL1        0.0000
     27 C         139.3126  141.3055  170.2483 C.ar    1  UNL1        0.0000
     28 C         139.8942  142.6733  170.0460 C.ar    1  UNL1        0.0000
     29 C         140.5204  143.0352  168.7319 C.ar    1  UNL1        0.0000
@<TRIPOS>BOND
     1    14    15    1
     2    15    13    1
     3    13    16    1
     4    16    17    1
     5    13    12    1
     6    12    11    1
     7    11    10    1
     8    10     4    1
     9     4     5   ar
    10     5     6   ar
    11     6     7   ar
    12     7     1    1
    13     1     2    2
    14     2     3    1
    15     2    18    1
    16    18    19   ar
    17    19    20   ar
    18    20    21   ar
    19    21    22   ar
    20    22    23   ar
    21     1    24    1
    22    24    25   ar
    23    25    26   ar
    24    26    27   ar
    25    27    28   ar
    26    28    29   ar
    27     7     8   ar
    28     8     9   ar
    29     9     4   ar
    30    23    18   ar
    31    29    24   ar
@<TRIPOS>MOLECULE
*****
 29 31 0 0 0
SMALL
GASTEIGER

@<TRIPOS>ATOM
      1 C         141.1876  142.3939  166.3384 C.2     1  UNL1        0.0106
      2 C         142.6684  142.6148  166.2471 C.2     1  UNL1        0.0576
      3 CL        143.5245  142.4748  167.4709 Cl      1  UNL1       -0.0822
      4 C         138.6194  142.8138  162.6671 C.ar    1  UNL1        0.1386
      5 C         138.6503  143.9103  163.6903 C.ar    1  UNL1        0.0369
      6 C         139.5063  143.7703  164.9140 C.ar    1  UNL1        0.0031
      7 C         140.3315  142.5339  165.1146 C.ar    1  UNL1        0.0010
      8 C         140.3007  141.4374  164.0915 C.ar    1  UNL1        0.0031
      9 C         139.4446  141.5774  162.8678 C.ar    1  UNL1        0.0369
     10 O         137.7634  142.9538  161.4434 O.3     1  UNL1       -0.4740
     11 C         138.1256  142.2194  160.1867 C.3     1  UNL1        0.2226
     12 C         138.8123  142.9431  159.0665 C.3     1  UNL1        0.1200
     13 N         140.2342  143.3939  159.2251 N.3     1  UNL1       -0.2696
     14 C         141.9983  141.8324  160.3203 C.3     1  UNL1        0.0188
     15 C         141.3538  142.4046  159.0926 C.3     1  UNL1        0.0722
     16 C         140.5364  144.8340  159.5162 C.3     1  UNL1        0.0722
     17 C         140.6952  145.2952  160.9348 C.3     1  UNL1        0.0188
     18 C         143.2932  142.9757  164.9320 C.ar    1  UNL1        0.0106
     19 C         143.1344  144.3620  164.3816 C.ar    1  UNL1        0.0008
     20 C         143.7592  144.7229  163.0665 C.ar    1  UNL1        0.0000
     21 C         144.5428  143.6975  162.3019 C.ar    1  UNL1        0.0000
     22 C         144.7016  142.3113  162.8523 C.ar    1  UNL1        0.0000
     23 C         144.0768  141.9503  164.1674 C.ar    1  UNL1        0.0008
     24 C         140.5629  142.0330  167.6534 C.ar    1  UNL1        0.0008
     25 C         140.5083  143.0437  168.7604 C.ar    1  UNL1        0.0000
     26 C         139.8835  142.6828  170.0755 C.ar    1  UNL1        0.0000
     27 C         139.3133  141.3111  170.2836 C.ar    1  UNL1        0.0000
     28 C         139.3679  140.3003  169.1766 C.ar    1  UNL1        0.0000
     29 C         139.9926  140.6612  167.8616 C.ar    1  UNL1        0.0000
@<TRIPOS>BOND
     1    14    15    1
     2    15    13    1
     3    13    16    1
     4    16    17    1
     5    13    12    1
     6    12    11    1
     7    11    10    1
     8    10     4    1
     9     4     5   ar
    10     5     6   ar
    11     6     7   ar
    12     7     1    1
    13     1     2    2
    14     2     3    1
    15     2    18    1
    16    18    19   ar
    17    19    20   ar
    18    20    21   ar
    19    21    22   ar
    20    22    23   ar
    21     1    24    1
    22    24    25   ar
    23    25    26   ar
    24    26    27   ar
    25    27    28   ar
    26    28    29   ar
    27     7     8   ar
    28     8     9   ar
    29     9     4   ar
    30    23    18   ar
    31    29    24   ar
@<TRIPOS>MOLECULE
*****
 29 31 0 0 0
SMALL
GASTEIGER

@<TRIPOS>ATOM
      1 C         140.5539  140.4740  166.9059 C.2     1  UNL1        0.0106
      2 C         139.4095  139.5923  166.5023 C.2     1  UNL1        0.0576
      3 CL        138.3605  139.2181  167.5070 Cl      1  UNL1       -0.0822
      4 C         143.7012  141.5966  163.8919 C.ar    1  UNL1        0.1386
      5 C         142.4625  142.4314  164.0292 C.ar    1  UNL1        0.0369
      6 C         141.4135  142.0572  165.0339 C.ar    1  UNL1        0.0031
      7 C         141.6030  140.8482  165.9012 C.ar    1  UNL1        0.0010
      8 C         142.8416  140.0135  165.7639 C.ar    1  UNL1        0.0031
      9 C         143.8907  140.3877  164.7593 C.ar    1  UNL1        0.0369
     10 O         144.7503  141.9709  162.8872 O.3     1  UNL1       -0.4740
     11 C         144.3478  142.5427  161.5602 C.3     1  UNL1        0.2226
     12 C         144.1180  141.6328  160.3900 C.3     1  UNL1        0.1200
     13 N         143.3773  140.3420  160.5777 N.3     1  UNL1       -0.2696
     14 C         140.9558  141.1610  161.0423 C.3     1  UNL1        0.0188
     15 C         141.9059  140.2736  160.2941 C.3     1  UNL1        0.0722
     16 C         144.1079  139.1197  161.0491 C.3     1  UNL1        0.0722
     17 C         143.4010  138.1034  161.8961 C.3     1  UNL1        0.0188
     18 C         139.3142  139.0848  165.0940 C.ar    1  UNL1        0.0106
     19 C         138.4117  139.7682  164.1100 C.ar    1  UNL1        0.0008
     20 C         138.3163  139.2607  162.7017 C.ar    1  UNL1        0.0000
     21 C         139.1235  138.0697  162.2773 C.ar    1  UNL1        0.0000
     22 C         140.0260  137.3862  163.2614 C.ar    1  UNL1        0.0000
     23 C         140.1214  137.8938  164.6697 C.ar    1  UNL1        0.0008
     24 C         140.6492  140.9815  168.3142 C.ar    1  UNL1        0.0008
     25 C         141.0851  140.0609  169.4153 C.ar    1  UNL1        0.0000
     26 C         141.1803  140.5685  170.8237 C.ar    1  UNL1        0.0000
     27 C         140.8398  141.9966  171.1308 C.ar    1  UNL1        0.0000
     28 C         140.4039  142.9173  170.0297 C.ar    1  UNL1        0.0000
     29 C         140.3086  142.4098  168.6214 C.ar    1  UNL1        0.0000
@<TRIPOS>BOND
     1    14    15    1
     2    15    13    1
     3    13    16    1
     4    16    17    1
     5    13    12    1
     6    12    11    1
     7    11    10    1
     8    10     4    1
     9     4     5   ar
    10     5     6   ar
    11     6     7   ar
    12     7     1    1
    13     1     2    2
    14     2     3    1
    15     2    18    1
    16    18    19   ar
    17    19    20   ar
    18    20    21   ar
    19    21    22   ar
    20    22    23   ar
    21     1    24    1
    22    24    25   ar
    23    25    26   ar
    24    26    27   ar
    25    27    28   ar
    26    28    29   ar
    27     7     8   ar
    28     8     9   ar
    29     9     4   ar
    30    23    18   ar
    31    29    24   ar
@<TRIPOS>MOLECULE
*****
 29 31 0 0 0
SMALL
GASTEIGER

@<TRIPOS>ATOM
      1 C         141.1156  141.4006  166.6719 C.2     1  UNL1        0.0106
      2 C         140.1009  140.2964  166.7035 C.2     1  UNL1        0.0576
      3 CL        139.5158  139.8527  168.0115 Cl      1  UNL1       -0.0822
      4 C         142.8708  142.7316  162.7479 C.ar    1  UNL1        0.1386
      5 C         143.4921  141.5917  163.4992 C.ar    1  UNL1        0.0369
      6 C         142.9070  141.1480  164.8072 C.ar    1  UNL1        0.0031
      7 C         141.7007  141.8442  165.3639 C.ar    1  UNL1        0.0010
      8 C         141.0794  142.9842  164.6126 C.ar    1  UNL1        0.0031
      9 C         141.6645  143.4279  163.3046 C.ar    1  UNL1        0.0369
     10 O         143.4559  143.1753  161.4399 O.3     1  UNL1       -0.4740
     11 C         144.4316  142.2945  160.7175 C.3     1  UNL1        0.2226
     12 C         143.9403  141.3067  159.7011 C.3     1  UNL1        0.1200
     13 N         143.2299  140.0629  160.1464 N.3     1  UNL1       -0.2696
     14 C         143.3922  138.2068  161.9571 C.3     1  UNL1        0.0188
     15 C         143.9975  138.9568  160.8077 C.3     1  UNL1        0.0722
     16 C         141.7520  139.9252  159.9304 C.3     1  UNL1        0.0722
     17 C         140.7917  140.6243  160.8466 C.3     1  UNL1        0.0188
     18 C         139.6711  139.6359  165.4271 C.ar    1  UNL1        0.0106
     19 C         138.5620  140.2310  164.6112 C.ar    1  UNL1        0.0008
     20 C         138.1322  139.5705  163.3349 C.ar    1  UNL1        0.0000
     21 C         138.8115  138.3149  162.8744 C.ar    1  UNL1        0.0000
     22 C         139.9207  137.7198  163.6903 C.ar    1  UNL1        0.0000
     23 C         140.3504  138.3803  164.9667 C.ar    1  UNL1        0.0008
     24 C         141.5453  142.0610  167.9482 C.ar    1  UNL1        0.0008
     25 C         142.9103  141.7923  168.5091 C.ar    1  UNL1        0.0000
     26 C         143.3400  142.4528  169.7855 C.ar    1  UNL1        0.0000
     27 C         142.4047  143.3820  170.5010 C.ar    1  UNL1        0.0000
     28 C         141.0397  143.6507  169.9401 C.ar    1  UNL1        0.0000
     29 C         140.6100  142.9902  168.6637 C.ar    1  UNL1        0.0000
@<TRIPOS>BOND
     1    14    15    1
     2    15    13    1
     3    13    16    1
     4    16    17    1
     5    13    12    1
     6    12    11    1
     7    11    10    1
     8    10     4    1
     9     4     5   ar
    10     5     6   ar
    11     6     7   ar
    12     7     1    1
    13     1     2    2
    14     2     3    1
    15     2    18    1
    16    18    19   ar
    17    19    20   ar
    18    20    21   ar
    19    21    22   ar
    20    22    23   ar
    21     1    24    1
    22    24    25   ar
    23    25    26   ar
    24    26    27   ar
    25    27    28   ar
    26    28    29   ar
    27     7     8   ar
    28     8     9   ar
    29     9     4   ar
    30    23    18   ar
    31    29    24   ar
@<TRIPOS>MOLECULE
*****
 29 31 0 0 0
SMALL
GASTEIGER

@<TRIPOS>ATOM
      1 C         140.9396  141.6600  166.5888 C.2     1  UNL1        0.0106
      2 C         139.8257  140.6577  166.5218 C.2     1  UNL1        0.0576
      3 CL        139.2861  140.0507  167.7829 Cl      1  UNL1       -0.0822
      4 C         142.5584  143.4810  162.8054 C.ar    1  UNL1        0.1386
      5 C         141.5945  144.2531  163.6567 C.ar    1  UNL1        0.0369
      6 C         141.0549  143.6461  164.9178 C.ar    1  UNL1        0.0031
      7 C         141.4792  142.2670  165.3276 C.ar    1  UNL1        0.0010
      8 C         142.4432  141.4949  164.4764 C.ar    1  UNL1        0.0031
      9 C         142.9827  142.1019  163.2153 C.ar    1  UNL1        0.0369
     10 O         143.0980  144.0880  161.5443 O.3     1  UNL1       -0.4740
     11 C         142.9216  143.3778  160.2350 C.3     1  UNL1        0.2226
     12 C         141.6273  143.4959  159.4861 C.3     1  UNL1        0.1200
     13 N         140.4163  144.0627  160.1662 N.3     1  UNL1       -0.2696
     14 C         139.7245  146.1869  161.4924 C.3     1  UNL1        0.0188
     15 C         140.2171  145.5481  160.2279 C.3     1  UNL1        0.0722
     16 C         139.4046  143.1440  160.7845 C.3     1  UNL1        0.0722
     17 C         138.4586  142.3736  159.9117 C.3     1  UNL1        0.0188
     18 C         139.2512  140.2624  165.1937 C.ar    1  UNL1        0.0106
     19 C         139.7122  139.0029  164.5221 C.ar    1  UNL1        0.0008
     20 C         139.1378  138.6075  163.1941 C.ar    1  UNL1        0.0000
     21 C         138.1024  139.4718  162.5375 C.ar    1  UNL1        0.0000
     22 C         137.6414  140.7314  163.2090 C.ar    1  UNL1        0.0000
     23 C         138.2159  141.1267  164.5372 C.ar    1  UNL1        0.0008
     24 C         141.5140  142.0552  167.9168 C.ar    1  UNL1        0.0008
     25 C         140.7920  143.0457  168.7814 C.ar    1  UNL1        0.0000
     26 C         141.3664  143.4410  170.1095 C.ar    1  UNL1        0.0000
     27 C         142.6629  142.8456  170.5730 C.ar    1  UNL1        0.0000
     28 C         143.3849  141.8551  169.7085 C.ar    1  UNL1        0.0000
     29 C         142.8105  141.4599  168.3804 C.ar    1  UNL1        0.0000
@<TRIPOS>BOND
     1    14    15    1
     2    15    13    1
     3    13    16    1
     4    16    17    1
     5    13    12    1
     6    12    11    1
     7    11    10    1
     8    10     4    1
     9     4     5   ar
    10     5     6   ar
    11     6     7   ar
    12     7     1    1
    13     1     2    2
    14     2     3    1
    15     2    18    1
    16    18    19   ar
    17    19    20   ar
    18    20    21   ar
    19    21    22   ar
    20    22    23   ar
    21     1    24    1
    22    24    25   ar
    23    25    26   ar
    24    26    27   ar
    25    27    28   ar
    26    28    29   ar
    27     7     8   ar
    28     8     9   ar
    29     9     4   ar
    30    23    18   ar
    31    29    24   ar
@<TRIPOS>MOLECULE
*****
 29 31 0 0 0
SMALL
GASTEIGER

@<TRIPOS>ATOM
      1 C         140.2513  140.4792  166.9293 C.2     1  UNL1        0.0106
      2 C         139.0502  139.6636  166.5527 C.2     1  UNL1        0.0576
      3 CL        138.1500  139.1168  167.6207 Cl      1  UNL1       -0.0822
      4 C         142.9519  142.1194  163.7252 C.ar    1  UNL1        0.1386
      5 C         141.9127  143.0000  164.3533 C.ar    1  UNL1        0.0369
      6 C         141.0125  142.4532  165.4214 C.ar    1  UNL1        0.0031
      7 C         141.1515  141.0260  165.8612 C.ar    1  UNL1        0.0010
      8 C         142.1907  140.1454  165.2331 C.ar    1  UNL1        0.0031
      9 C         143.0909  140.6922  164.1650 C.ar    1  UNL1        0.0369
     10 O         143.8521  142.6662  162.6571 O.3     1  UNL1       -0.4740
     11 C         143.4068  143.8322  161.8253 C.3     1  UNL1        0.2226
     12 C         142.4789  143.6161  160.6667 C.3     1  UNL1        0.1200
     13 N         140.9948  143.6945  160.8696 N.3     1  UNL1       -0.2696
     14 C         140.8576  141.1010  160.9391 C.3     1  UNL1        0.0188
     15 C         140.2005  142.4411  161.0889 C.3     1  UNL1        0.0722
     16 C         140.3049  145.0263  160.8533 C.3     1  UNL1        0.0722
     17 C         140.1839  145.8239  162.1180 C.3     1  UNL1        0.0188
     18 C         138.7492  139.3946  165.1080 C.ar    1  UNL1        0.0106
     19 C         138.0928  140.4509  164.2693 C.ar    1  UNL1        0.0008
     20 C         137.7918  140.1820  162.8247 C.ar    1  UNL1        0.0000
     21 C         138.1472  138.8566  162.2186 C.ar    1  UNL1        0.0000
     22 C         138.8036  137.8003  163.0572 C.ar    1  UNL1        0.0000
     23 C         139.1046  138.0693  164.5020 C.ar    1  UNL1        0.0008
     24 C         140.5522  140.7482  168.3739 C.ar    1  UNL1        0.0008
     25 C         141.4136  139.7968  169.1504 C.ar    1  UNL1        0.0000
     26 C         141.7145  140.0658  170.5951 C.ar    1  UNL1        0.0000
     27 C         141.1541  141.2862  171.2633 C.ar    1  UNL1        0.0000
     28 C         140.2927  142.2376  170.4869 C.ar    1  UNL1        0.0000
     29 C         139.9918  141.9686  169.0422 C.ar    1  UNL1        0.0000
@<TRIPOS>BOND
     1    14    15    1
     2    15    13    1
     3    13    16    1
     4    16    17    1
     5    13    12    1
     6    12    11    1
     7    11    10    1
     8    10     4    1
     9     4     5   ar
    10     5     6   ar
    11     6     7   ar
    12     7     1    1
    13     1     2    2
    14     2     3    1
    15     2    18    1
    16    18    19   ar
    17    19    20   ar
    18    20    21   ar
    19    21    22   ar
    20    22    23   ar
    21     1    24    1
    22    24    25   ar
    23    25    26   ar
    24    26    27   ar
    25    27    28   ar
    26    28    29   ar
    27     7     8   ar
    28     8     9   ar
    29     9     4   ar
    30    23    18   ar
    31    29    24   ar
@<TRIPOS>MOLECULE
*****
 29 31 0 0 0
SMALL
GASTEIGER

@<TRIPOS>ATOM
      1 C         140.6018  139.9756  167.0081 C.2     1  UNL1        0.0106
      2 C         139.2339  139.4764  166.6479 C.2     1  UNL1        0.0576
      3 CL        138.1913  139.3107  167.7136 Cl      1  UNL1       -0.0822
      4 C         143.7296  140.4725  163.8112 C.ar    1  UNL1        0.1386
      5 C         143.5706  139.1529  164.5063 C.ar    1  UNL1        0.0369
      6 C         142.5280  138.9872  165.5719 C.ar    1  UNL1        0.0031
      7 C         141.6444  140.1412  165.9425 C.ar    1  UNL1        0.0010
      8 C         141.8033  141.4609  165.2474 C.ar    1  UNL1        0.0031
      9 C         142.8459  141.6266  164.1818 C.ar    1  UNL1        0.0369
     10 O         144.7722  140.6382  162.7456 O.3     1  UNL1       -0.4740
     11 C         145.2870  142.0055  162.4062 C.3     1  UNL1        0.2226
     12 C         144.6100  142.8194  161.3434 C.3     1  UNL1        0.1200
     13 N         143.5282  143.7892  161.7166 N.3     1  UNL1       -0.2696
     14 C         142.8477  145.1541  163.8199 C.3     1  UNL1        0.0188
     15 C         143.8103  144.8848  162.7015 C.3     1  UNL1        0.0722
     16 C         142.1644  143.6633  161.1050 C.3     1  UNL1        0.0722
     17 C         141.5541  144.8301  160.3864 C.3     1  UNL1        0.0188
     18 C         138.9086  139.1428  165.2221 C.ar    1  UNL1        0.0106
     19 C         138.2896  140.1793  164.3318 C.ar    1  UNL1        0.0008
     20 C         137.9643  139.8458  162.9061 C.ar    1  UNL1        0.0000
     21 C         138.2580  138.4757  162.3704 C.ar    1  UNL1        0.0000
     22 C         138.8770  137.4393  163.2607 C.ar    1  UNL1        0.0000
     23 C         139.2024  137.7728  164.6866 C.ar    1  UNL1        0.0008
     24 C         140.9270  140.3091  168.4339 C.ar    1  UNL1        0.0008
     25 C         140.1838  141.4069  169.1356 C.ar    1  UNL1        0.0000
     26 C         140.5091  141.7405  170.5615 C.ar    1  UNL1        0.0000
     27 C         141.5775  140.9762  171.2855 C.ar    1  UNL1        0.0000
     28 C         142.3208  139.8784  170.5838 C.ar    1  UNL1        0.0000
     29 C         141.9955  139.5449  169.1580 C.ar    1  UNL1        0.0000
@<TRIPOS>BOND
     1    14    15    1
     2    15    13    1
     3    13    16    1
     4    16    17    1
     5    13    12    1
     6    12    11    1
     7    11    10    1
     8    10     4    1
     9     4     5   ar
    10     5     6   ar
    11     6     7   ar
    12     7     1    1
    13     1     2    2
    14     2     3    1
    15     2    18    1
    16    18    19   ar
    17    19    20   ar
    18    20    21   ar
    19    21    22   ar
    20    22    23   ar
    21     1    24    1
    22    24    25   ar
    23    25    26   ar
    24    26    27   ar
    25    27    28   ar
    26    28    29   ar
    27     7     8   ar
    28     8     9   ar
    29     9     4   ar
    30    23    18   ar
    31    29    24   ar
@<TRIPOS>MOLECULE
*****
 29 31 0 0 0
SMALL
GASTEIGER

@<TRIPOS>ATOM
      1 C         140.9209  141.7818  166.5606 C.2     1  UNL1        0.0106
      2 C         139.9557  140.6342  166.5242 C.2     1  UNL1        0.0576
      3 CL        139.5651  139.9420  167.7964 Cl      1  UNL1       -0.0822
      4 C         142.0927  143.8582  162.7442 C.ar    1  UNL1        0.1386
      5 C         142.8000  142.6035  163.1630 C.ar    1  UNL1        0.0369
      6 C         142.4093  141.9113  164.4352 C.ar    1  UNL1        0.0031
      7 C         141.3115  142.4739  165.2885 C.ar    1  UNL1        0.0010
      8 C         140.6043  143.7286  164.8696 C.ar    1  UNL1        0.0031
      9 C         140.9949  144.4208  163.5975 C.ar    1  UNL1        0.0369
     10 O         142.4834  144.5503  161.4720 O.3     1  UNL1       -0.4740
     11 C         141.6603  144.3616  160.2323 C.3     1  UNL1        0.2226
     12 C         141.5627  143.0068  159.5959 C.3     1  UNL1        0.1200
     13 N         140.3730  142.1345  159.8678 N.3     1  UNL1       -0.2696
     14 C         138.4297  143.0019  161.3581 C.3     1  UNL1        0.0188
     15 C         139.0093  142.7454  159.9986 C.3     1  UNL1        0.0722
     16 C         140.5471  140.6513  160.0088 C.3     1  UNL1        0.0722
     17 C         141.7446  140.1015  160.7255 C.3     1  UNL1        0.0188
     18 C         139.3811  140.1786  165.2156 C.ar    1  UNL1        0.0106
     19 C         139.9977  139.0207  164.4883 C.ar    1  UNL1        0.0008
     20 C         139.4232  138.5651  163.1797 C.ar    1  UNL1        0.0000
     21 C         138.2320  139.2675  162.5984 C.ar    1  UNL1        0.0000
     22 C         137.6154  140.4254  163.3257 C.ar    1  UNL1        0.0000
     23 C         138.1900  140.8810  164.6344 C.ar    1  UNL1        0.0008
     24 C         141.4954  142.2373  167.8692 C.ar    1  UNL1        0.0008
     25 C         142.8991  141.8632  168.2428 C.ar    1  UNL1        0.0000
     26 C         143.4737  142.3188  169.5514 C.ar    1  UNL1        0.0000
     27 C         142.6444  143.1483  170.4864 C.ar    1  UNL1        0.0000
     28 C         141.2407  143.5224  170.1128 C.ar    1  UNL1        0.0000
     29 C         140.6662  143.0669  168.8042 C.ar    1  UNL1        0.0000
@<TRIPOS>BOND
     1    14    15    1
     2    15    13    1
     3    13    16    1
     4    16    17    1
     5    13    12    1
     6    12    11    1
     7    11    10    1
     8    10     4    1
     9     4     5   ar
    10     5     6   ar
    11     6     7   ar
    12     7     1    1
    13     1     2    2
    14     2     3    1
    15     2    18    1
    16    18    19   ar
    17    19    20   ar
    18    20    21   ar
    19    21    22   ar
    20    22    23   ar
    21     1    24    1
    22    24    25   ar
    23    25    26   ar
    24    26    27   ar
    25    27    28   ar
    26    28    29   ar
    27     7     8   ar
    28     8     9   ar
    29     9     4   ar
    30    23    18   ar
    31    29    24   ar
