@<TRIPOS>MOLECULE
*****
 32 35 0 0 0
SMALL
GASTEIGER

@<TRIPOS>ATOM
      1 N         142.6798  138.0700  162.4040 N.3     1  UNL1       -0.2863
      2 H         143.2748  138.5979  161.7655 H       1  UNL1        0.1240
      3 C         142.5180  138.9078  163.6376 C.3     1  UNL1        0.1341
      4 C         142.7798  138.4631  165.0460 C.3     1  UNL1        0.0471
      5 C         142.4895  139.6180  165.9582 C.3     1  UNL1        0.1031
      6 N         142.0483  140.7763  165.1135 N.am    1  UNL1       -0.2253
      7 C         141.6581  142.1351  165.6150 C.2     1  UNL1        0.2548
      8 O         141.2362  143.1995  164.6460 O.2     1  UNL1       -0.2695
      9 C         142.0659  140.3375  163.6793 C.2     1  UNL1        0.2459
     10 O         141.6964  141.1802  162.4948 O.2     1  UNL1       -0.2730
     11 C         141.6897  142.4294  167.0856 C.ar    1  UNL1        0.0548
     12 C         140.4405  142.8704  167.7891 C.ar    1  UNL1        0.0046
     13 C         140.4721  143.1647  169.2596 C.ar    1  UNL1        0.0010
     14 C         141.7528  143.0179  170.0266 C.ar    1  UNL1        0.0114
     15 C         143.0020  142.5769  169.3230 C.ar    1  UNL1        0.0578
     16 CL        144.2827  142.4302  170.0899 Cl      1  UNL1       -0.0822
     17 C         142.9705  142.2826  167.8525 C.ar    1  UNL1        0.0159
     18 C         141.4724  137.6469  161.6208 C.3     1  UNL1        0.1151
     19 N         139.3885  139.0068  160.6446 N.ar    1  UNL1       -0.3070
     20 C         139.1876  139.9725  159.5146 C.ar    1  UNL1        0.1786
     21 N         140.5073  140.1631  158.8275 N.ar    1  UNL1       -0.2226
     22 C         141.5239  139.3151  159.5329 C.ar    1  UNL1        0.1147
     23 C         140.8324  138.6004  160.6559 C.ar    1  UNL1        0.0739
     24 C         138.3312  138.5309  161.5962 C.3     1  UNL1        0.1340
     25 C         138.7706  139.2888  166.0101 C.ar    1  UNL1        0.0684
     26 C         139.0183  137.9170  165.4564 C.ar    1  UNL1        0.0100
     27 C         138.8718  137.6643  163.9851 C.ar    1  UNL1       -0.0017
     28 C         138.4777  138.7835  163.0675 C.ar    1  UNL1        0.0005
     29 C         138.2300  140.1554  163.6212 C.ar    1  UNL1       -0.0017
     30 C         138.3765  140.4080  165.0925 C.ar    1  UNL1        0.0100
     31 N         139.0636  139.7941  168.9527 N.1     1  UNL1       -0.1908
     32 C         138.9171  139.5415  167.4814 C.1     1  UNL1        0.1004
@<TRIPOS>BOND
     1    31    32    3
     2    32    25    1
     3    25    26   ar
     4    26    27   ar
     5    27    28   ar
     6    28    24    1
     7    24    19    1
     8    19    20   ar
     9    20    21   ar
    10    21    22   ar
    11    22    23   ar
    12    23    18    1
    13    18     1    1
    14     3     1    1
    15     3     4    1
    16     4     5    1
    17     5     6    1
    18     6     7   am
    19     7     8    2
    20     7    11    1
    21    11    12   ar
    22    12    13   ar
    23    13    14   ar
    24    14    15   ar
    25    15    16    1
    26    15    17   ar
    27     6     9   am
    28     9    10    2
    29    28    29   ar
    30    29    30   ar
    31    30    25   ar
    32    23    19   ar
    33     9     3    1
    34    17    11   ar
    35     1     2    1
@<TRIPOS>MOLECULE
*****
 32 35 0 0 0
SMALL
GASTEIGER

@<TRIPOS>ATOM
      1 N         140.5537  146.2468  162.2280 N.3     1  UNL1       -0.2863
      2 H         139.9690  146.9336  162.7042 H       1  UNL1        0.1240
      3 C         140.9303  145.2157  163.2502 C.3     1  UNL1        0.1341
      4 C         140.0487  144.7002  164.3488 C.3     1  UNL1        0.0471
      5 C         140.8283  143.6849  165.1308 C.3     1  UNL1        0.1031
      6 N         142.1916  143.5730  164.5155 N.am    1  UNL1       -0.2253
      7 C         143.2978  142.6730  164.9807 C.2     1  UNL1        0.2548
      8 O         144.6143  142.6694  164.2619 O.2     1  UNL1       -0.2695
      9 C         142.2547  144.5190  163.3532 C.2     1  UNL1        0.2459
     10 O         143.4350  144.7312  162.4520 O.2     1  UNL1       -0.2730
     11 C         143.0873  141.7765  166.1649 C.ar    1  UNL1        0.0548
     12 C         142.8491  140.3096  165.9620 C.ar    1  UNL1        0.0046
     13 C         142.6387  139.4131  167.1461 C.ar    1  UNL1        0.0010
     14 C         142.6666  139.9836  168.5330 C.ar    1  UNL1        0.0114
     15 C         142.9048  141.4506  168.7359 C.ar    1  UNL1        0.0578
     16 CL        142.9326  142.0211  170.1229 Cl      1  UNL1       -0.0822
     17 C         143.1152  142.3471  167.5519 C.ar    1  UNL1        0.0159
     18 C         139.8179  145.8382  160.9863 C.3     1  UNL1        0.1151
     19 N         139.8071  143.3930  159.9065 N.ar    1  UNL1       -0.3070
     20 C         140.6857  142.6570  158.9389 C.ar    1  UNL1        0.1786
     21 N         141.8010  143.5751  158.5346 N.ar    1  UNL1       -0.2226
     22 C         141.6116  144.8786  159.2524 C.ar    1  UNL1        0.1147
     23 C         140.3794  144.7661  160.1002 C.ar    1  UNL1        0.0739
     24 C         138.5730  142.8513  160.5648 C.3     1  UNL1        0.1340
     25 C         138.8627  140.8405  164.5801 C.ar    1  UNL1        0.0684
     26 C         137.6907  141.7224  164.2658 C.ar    1  UNL1        0.0100
     27 C         137.5942  142.3926  162.9273 C.ar    1  UNL1       -0.0017
     28 C         138.6695  142.1810  161.9032 C.ar    1  UNL1        0.0005
     29 C         139.8414  141.2992  162.2176 C.ar    1  UNL1       -0.0017
     30 C         139.9380  140.6289  163.5560 C.ar    1  UNL1        0.0100
     31 N         139.0558  139.5000  167.2570 N.1     1  UNL1       -0.1908
     32 C         138.9592  140.1703  165.9186 C.1     1  UNL1        0.1004
@<TRIPOS>BOND
     1    31    32    3
     2    32    25    1
     3    25    26   ar
     4    26    27   ar
     5    27    28   ar
     6    28    24    1
     7    24    19    1
     8    19    20   ar
     9    20    21   ar
    10    21    22   ar
    11    22    23   ar
    12    23    18    1
    13    18     1    1
    14     3     1    1
    15     3     4    1
    16     4     5    1
    17     5     6    1
    18     6     7   am
    19     7     8    2
    20     7    11    1
    21    11    12   ar
    22    12    13   ar
    23    13    14   ar
    24    14    15   ar
    25    15    16    1
    26    15    17   ar
    27     6     9   am
    28     9    10    2
    29    28    29   ar
    30    29    30   ar
    31    30    25   ar
    32    23    19   ar
    33     9     3    1
    34    17    11   ar
    35     1     2    1
@<TRIPOS>MOLECULE
*****
 32 35 0 0 0
SMALL
GASTEIGER

@<TRIPOS>ATOM
      1 N         138.9013  137.5151  163.3055 N.3     1  UNL1       -0.2863
      2 H         139.6364  136.8584  163.0432 H       1  UNL1        0.1240
      3 C         139.4634  138.3830  164.3921 C.3     1  UNL1        0.1341
      4 C         140.6625  139.2766  164.2752 C.3     1  UNL1        0.0471
      5 C         140.8652  139.9556  165.5972 C.3     1  UNL1        0.1031
      6 N         139.7915  139.4816  166.5312 N.am    1  UNL1       -0.2253
      7 C         139.6151  139.9051  167.9593 C.2     1  UNL1        0.2548
      8 O         138.4884  139.3430  168.7746 O.2     1  UNL1       -0.2695
      9 C         138.9251  138.5097  165.7864 C.2     1  UNL1        0.2459
     10 O         137.7302  137.7907  166.3389 O.2     1  UNL1       -0.2730
     11 C         140.5654  140.8909  168.5721 C.ar    1  UNL1        0.0548
     12 C         142.0162  140.5407  168.7213 C.ar    1  UNL1        0.0046
     13 C         142.9664  141.5263  169.3341 C.ar    1  UNL1        0.0010
     14 C         142.4658  142.8621  169.7977 C.ar    1  UNL1        0.0114
     15 C         141.0149  143.2123  169.6485 C.ar    1  UNL1        0.0578
     16 CL        140.5142  144.5481  170.1121 Cl      1  UNL1       -0.0822
     17 C         140.0646  142.2267  169.0357 C.ar    1  UNL1        0.0159
     18 C         138.4003  138.1344  162.0345 C.3     1  UNL1        0.1151
     19 N         139.2166  140.1235  160.4463 N.ar    1  UNL1       -0.3070
     20 C         140.4081  140.3564  159.5654 C.ar    1  UNL1        0.1786
     21 N         141.2934  139.1486  159.6540 N.ar    1  UNL1       -0.2226
     22 C         140.6489  138.1693  160.5897 C.ar    1  UNL1        0.1147
     23 C         139.3655  138.7717  161.0794 C.ar    1  UNL1        0.0739
     24 C         138.0765  141.0751  160.6572 C.3     1  UNL1        0.1340
     25 C         138.0849  143.8460  164.2029 C.ar    1  UNL1        0.0684
     26 C         138.4645  144.3623  162.8467 C.ar    1  UNL1        0.0100
     27 C         138.4617  143.4386  161.6648 C.ar    1  UNL1       -0.0017
     28 C         138.0793  141.9987  161.8391 C.ar    1  UNL1        0.0005
     29 C         137.6997  141.4825  163.1953 C.ar    1  UNL1       -0.0017
     30 C         137.7025  142.4061  164.3772 C.ar    1  UNL1        0.0100
     31 N         138.0905  145.6933  166.5667 N.1     1  UNL1       -0.1908
     32 C         138.0877  144.7696  165.3848 C.1     1  UNL1        0.1004
@<TRIPOS>BOND
     1    31    32    3
     2    32    25    1
     3    25    26   ar
     4    26    27   ar
     5    27    28   ar
     6    28    24    1
     7    24    19    1
     8    19    20   ar
     9    20    21   ar
    10    21    22   ar
    11    22    23   ar
    12    23    18    1
    13    18     1    1
    14     3     1    1
    15     3     4    1
    16     4     5    1
    17     5     6    1
    18     6     7   am
    19     7     8    2
    20     7    11    1
    21    11    12   ar
    22    12    13   ar
    23    13    14   ar
    24    14    15   ar
    25    15    16    1
    26    15    17   ar
    27     6     9   am
    28     9    10    2
    29    28    29   ar
    30    29    30   ar
    31    30    25   ar
    32    23    19   ar
    33     9     3    1
    34    17    11   ar
    35     1     2    1
@<TRIPOS>MOLECULE
*****
 32 35 0 0 0
SMALL
GASTEIGER

@<TRIPOS>ATOM
      1 N         136.9870  140.5810  161.9084 N.3     1  UNL1       -0.2863
      2 H         136.2311  140.0079  162.2835 H       1  UNL1        0.1240
      3 C         137.8984  140.9006  163.0560 C.3     1  UNL1        0.1341
      4 C         138.1212  140.0471  164.2692 C.3     1  UNL1        0.0471
      5 C         139.1076  140.7489  165.1549 C.3     1  UNL1        0.1031
      6 N         139.4945  142.0361  164.4890 N.am    1  UNL1       -0.2253
      7 C         140.4593  143.0513  165.0261 C.2     1  UNL1        0.2548
      8 O         140.7488  144.2981  164.2439 O.2     1  UNL1       -0.2695
      9 C         138.7472  142.1299  163.1918 C.2     1  UNL1        0.2459
     10 O         138.8335  143.2553  162.2039 O.2     1  UNL1       -0.2730
     11 C         141.1346  142.8198  166.3454 C.ar    1  UNL1        0.0548
     12 C         142.5942  142.4775  166.3908 C.ar    1  UNL1        0.0046
     13 C         143.2696  142.2460  167.7100 C.ar    1  UNL1        0.0010
     14 C         142.4852  142.3568  168.9838 C.ar    1  UNL1        0.0114
     15 C         141.0255  142.6992  168.9383 C.ar    1  UNL1        0.0578
     16 CL        140.2411  142.8100  170.2121 Cl      1  UNL1       -0.0822
     17 C         140.3502  142.9307  167.6191 C.ar    1  UNL1        0.0159
     18 C         137.5200  139.8611  160.7051 C.3     1  UNL1        0.1151
     19 N         140.1234  139.6575  160.1341 N.ar    1  UNL1       -0.3070
     20 C         141.0996  140.4657  159.3318 C.ar    1  UNL1        0.1786
     21 N         140.3648  141.6379  158.7518 N.ar    1  UNL1       -0.2226
     22 C         138.9344  141.5540  159.1957 C.ar    1  UNL1        0.1147
     23 C         138.7852  140.3301  160.0500 C.ar    1  UNL1        0.0739
     24 C         140.4312  138.3979  160.8881 C.3     1  UNL1        0.1340
     25 C         142.1231  138.6243  165.0518 C.ar    1  UNL1        0.0684
     26 C         142.3829  139.7329  164.0753 C.ar    1  UNL1        0.0100
     27 C         141.8189  139.6574  162.6874 C.ar    1  UNL1       -0.0017
     28 C         140.9952  138.4733  162.2760 C.ar    1  UNL1        0.0005
     29 C         140.7354  137.3648  163.2525 C.ar    1  UNL1       -0.0017
     30 C         141.2994  137.4402  164.6403 C.ar    1  UNL1        0.0100
     31 N         143.2511  138.7753  167.8275 N.1     1  UNL1       -0.1908
     32 C         142.6871  138.6998  166.4397 C.1     1  UNL1        0.1004
@<TRIPOS>BOND
     1    31    32    3
     2    32    25    1
     3    25    26   ar
     4    26    27   ar
     5    27    28   ar
     6    28    24    1
     7    24    19    1
     8    19    20   ar
     9    20    21   ar
    10    21    22   ar
    11    22    23   ar
    12    23    18    1
    13    18     1    1
    14     3     1    1
    15     3     4    1
    16     4     5    1
    17     5     6    1
    18     6     7   am
    19     7     8    2
    20     7    11    1
    21    11    12   ar
    22    12    13   ar
    23    13    14   ar
    24    14    15   ar
    25    15    16    1
    26    15    17   ar
    27     6     9   am
    28     9    10    2
    29    28    29   ar
    30    29    30   ar
    31    30    25   ar
    32    23    19   ar
    33     9     3    1
    34    17    11   ar
    35     1     2    1
@<TRIPOS>MOLECULE
*****
 32 35 0 0 0
SMALL
GASTEIGER

@<TRIPOS>ATOM
      1 N         144.8673  142.1713  162.6813 N.3     1  UNL1       -0.2863
      2 H         145.1216  143.1571  162.6180 H       1  UNL1        0.1240
      3 C         144.2071  141.9792  164.0144 C.3     1  UNL1        0.1341
      4 C         143.6665  143.0662  164.8953 C.3     1  UNL1        0.0471
      5 C         143.0968  142.4251  166.1260 C.3     1  UNL1        0.1031
      6 N         143.2854  140.9419  166.0055 N.am    1  UNL1       -0.2253
      7 C         142.8621  139.9146  167.0133 C.2     1  UNL1        0.2548
      8 O         143.1186  138.4596  166.7542 O.2     1  UNL1       -0.2695
      9 C         143.9715  140.6663  164.7005 C.2     1  UNL1        0.2459
     10 O         144.3549  139.3150  164.1740 O.2     1  UNL1       -0.2730
     11 C         142.1822  140.3423  168.2802 C.ar    1  UNL1        0.0548
     12 C         142.9705  141.0168  169.3634 C.ar    1  UNL1        0.0046
     13 C         142.2907  141.4445  170.6303 C.ar    1  UNL1        0.0010
     14 C         140.8226  141.1978  170.8138 C.ar    1  UNL1        0.0114
     15 C         140.0342  140.5233  169.7304 C.ar    1  UNL1        0.0578
     16 CL        138.5661  140.2765  169.9139 Cl      1  UNL1       -0.0822
     17 C         140.7140  140.0955  168.4636 C.ar    1  UNL1        0.0159
     18 C         144.1262  141.8335  161.4216 C.3     1  UNL1        0.1151
     19 N         141.4909  141.4059  161.5519 N.ar    1  UNL1       -0.3070
     20 C         140.2680  142.2197  161.2482 C.ar    1  UNL1        0.1786
     21 N         140.7161  143.5681  160.7672 N.ar    1  UNL1       -0.2226
     22 C         142.2160  143.5875  160.7737 C.ar    1  UNL1        0.1147
     23 C         142.6949  142.2512  161.2585 C.ar    1  UNL1        0.0739
     24 C         141.5070  139.9945  162.0596 C.3     1  UNL1        0.1340
     25 C         138.7765  138.7827  165.4250 C.ar    1  UNL1        0.0684
     26 C         139.3234  140.1783  165.3684 C.ar    1  UNL1        0.0100
     27 C         140.2336  140.5822  164.2466 C.ar    1  UNL1       -0.0017
     28 C         140.5969  139.5906  163.1814 C.ar    1  UNL1        0.0005
     29 C         140.0500  138.1950  163.2380 C.ar    1  UNL1       -0.0017
     30 C         139.1398  137.7911  164.3598 C.ar    1  UNL1        0.0100
     31 N         136.9562  137.9748  167.6686 N.1     1  UNL1       -0.1908
     32 C         137.8663  138.3787  166.5468 C.1     1  UNL1        0.1004
@<TRIPOS>BOND
     1    31    32    3
     2    32    25    1
     3    25    26   ar
     4    26    27   ar
     5    27    28   ar
     6    28    24    1
     7    24    19    1
     8    19    20   ar
     9    20    21   ar
    10    21    22   ar
    11    22    23   ar
    12    23    18    1
    13    18     1    1
    14     3     1    1
    15     3     4    1
    16     4     5    1
    17     5     6    1
    18     6     7   am
    19     7     8    2
    20     7    11    1
    21    11    12   ar
    22    12    13   ar
    23    13    14   ar
    24    14    15   ar
    25    15    16    1
    26    15    17   ar
    27     6     9   am
    28     9    10    2
    29    28    29   ar
    30    29    30   ar
    31    30    25   ar
    32    23    19   ar
    33     9     3    1
    34    17    11   ar
    35     1     2    1
@<TRIPOS>MOLECULE
*****
 32 35 0 0 0
SMALL
GASTEIGER

@<TRIPOS>ATOM
      1 N         141.6956  138.6302  161.7805 N.3     1  UNL1       -0.2863
      2 H         142.1213  139.2693  161.1092 H       1  UNL1        0.1240
      3 C         141.6924  139.3332  163.1056 C.3     1  UNL1        0.1341
      4 C         141.6882  138.6744  164.4532 C.3     1  UNL1        0.0471
      5 C         141.6861  139.7525  165.4961 C.3     1  UNL1        0.1031
      6 N         141.6890  141.0775  164.7931 N.am    1  UNL1       -0.2253
      7 C         141.6882  142.4251  165.4518 C.2     1  UNL1        0.2548
      8 O         141.6914  143.6694  164.6141 O.2     1  UNL1       -0.2695
      9 C         141.6929  140.8184  163.3156 C.2     1  UNL1        0.2459
     10 O         141.6967  141.8613  162.2375 O.2     1  UNL1       -0.2730
     11 C         141.6841  142.5285  166.9483 C.ar    1  UNL1        0.0548
     12 C         140.3951  142.7560  167.6808 C.ar    1  UNL1        0.0046
     13 C         140.3910  142.8594  169.1772 C.ar    1  UNL1        0.0010
     14 C         141.6759  142.7351  169.9411 C.ar    1  UNL1        0.0114
     15 C         142.9650  142.5076  169.2085 C.ar    1  UNL1        0.0578
     16 CL        144.2499  142.3833  169.9724 Cl      1  UNL1       -0.0822
     17 C         142.9691  142.4042  167.7121 C.ar    1  UNL1        0.0159
     18 C         140.4045  138.1637  161.1758 C.3     1  UNL1        0.1151
     19 N         138.4801  139.6830  160.1112 N.ar    1  UNL1       -0.3070
     20 C         138.2425  140.3069  158.7679 C.ar    1  UNL1        0.1786
     21 N         139.3956  139.9463  157.8788 N.ar    1  UNL1       -0.2226
     22 C         140.3459  139.0996  158.6727 C.ar    1  UNL1        0.1147
     23 C         139.7801  138.9368  160.0523 C.ar    1  UNL1        0.0739
     24 C         137.5765  139.7870  161.3039 C.3     1  UNL1        0.1340
     25 C         138.0752  143.1816  164.2156 C.ar    1  UNL1        0.0684
     26 C         138.0538  141.7659  164.7107 C.ar    1  UNL1        0.0100
     27 C         137.8875  140.6343  163.7401 C.ar    1  UNL1       -0.0017
     28 C         137.7427  140.9185  162.2745 C.ar    1  UNL1        0.0005
     29 C         137.7642  142.3343  161.7793 C.ar    1  UNL1       -0.0017
     30 C         137.9304  143.4658  162.7499 C.ar    1  UNL1        0.0100
     31 N         138.4077  145.4447  166.1566 N.1     1  UNL1       -0.1908
     32 C         138.2414  144.3132  165.1861 C.1     1  UNL1        0.1004
@<TRIPOS>BOND
     1    31    32    3
     2    32    25    1
     3    25    26   ar
     4    26    27   ar
     5    27    28   ar
     6    28    24    1
     7    24    19    1
     8    19    20   ar
     9    20    21   ar
    10    21    22   ar
    11    22    23   ar
    12    23    18    1
    13    18     1    1
    14     3     1    1
    15     3     4    1
    16     4     5    1
    17     5     6    1
    18     6     7   am
    19     7     8    2
    20     7    11    1
    21    11    12   ar
    22    12    13   ar
    23    13    14   ar
    24    14    15   ar
    25    15    16    1
    26    15    17   ar
    27     6     9   am
    28     9    10    2
    29    28    29   ar
    30    29    30   ar
    31    30    25   ar
    32    23    19   ar
    33     9     3    1
    34    17    11   ar
    35     1     2    1
@<TRIPOS>MOLECULE
*****
 32 35 0 0 0
SMALL
GASTEIGER

@<TRIPOS>ATOM
      1 N         143.5898  142.0119  161.7652 N.3     1  UNL1       -0.2863
      2 H         142.9444  142.5417  161.1795 H       1  UNL1        0.1240
      3 C         142.9901  141.9669  163.1394 C.3     1  UNL1        0.1341
      4 C         143.7298  142.1538  164.4308 C.3     1  UNL1        0.0471
      5 C         142.7422  142.0295  165.5529 C.3     1  UNL1        0.1031
      6 N         141.3921  141.7658  164.9549 N.am    1  UNL1       -0.2253
      7 C         140.1132  141.5744  165.7151 C.2     1  UNL1        0.2548
      8 O         138.8332  141.3169  164.9768 O.2     1  UNL1       -0.2695
      9 C         141.5452  141.7271  163.4633 C.2     1  UNL1        0.2459
     10 O         140.4465  141.4902  162.4700 O.2     1  UNL1       -0.2730
     11 C         140.1144  141.6405  167.2137 C.ar    1  UNL1        0.0548
     12 C         139.9235  140.3901  168.0197 C.ar    1  UNL1        0.0046
     13 C         139.9247  140.4562  169.5183 C.ar    1  UNL1        0.0010
     14 C         140.1168  141.7728  170.2108 C.ar    1  UNL1        0.0114
     15 C         140.3078  143.0233  169.4047 C.ar    1  UNL1        0.0578
     16 CL        140.5000  144.3399  170.0972 Cl      1  UNL1       -0.0822
     17 C         140.3066  142.9572  167.9062 C.ar    1  UNL1        0.0159
     18 C         143.8893  140.7361  161.0353 C.3     1  UNL1        0.1151
     19 N         142.1470  138.8461  160.3020 N.ar    1  UNL1       -0.3070
     20 C         141.2243  138.6491  159.1359 C.ar    1  UNL1        0.1786
     21 N         141.3765  139.8274  158.2201 N.ar    1  UNL1       -0.2226
     22 C         142.3933  140.7526  158.8202 C.ar    1  UNL1        0.1147
     23 C         142.8696  140.1462  160.1068 C.ar    1  UNL1        0.0739
     24 C         142.3174  137.9079  161.4599 C.3     1  UNL1        0.1340
     25 C         139.3329  137.9252  164.8278 C.ar    1  UNL1        0.0684
     26 C         140.7995  138.0299  165.1247 C.ar    1  UNL1        0.0100
     27 C         141.7943  138.0242  164.0021 C.ar    1  UNL1       -0.0017
     28 C         141.3226  137.9137  162.5825 C.ar    1  UNL1        0.0005
     29 C         139.8560  137.8089  162.2856 C.ar    1  UNL1       -0.0017
     30 C         138.8612  137.8147  163.4082 C.ar    1  UNL1        0.0100
     31 N         137.3433  137.9367  167.0730 N.1     1  UNL1       -0.1908
     32 C         138.3381  137.9309  165.9504 C.1     1  UNL1        0.1004
@<TRIPOS>BOND
     1    31    32    3
     2    32    25    1
     3    25    26   ar
     4    26    27   ar
     5    27    28   ar
     6    28    24    1
     7    24    19    1
     8    19    20   ar
     9    20    21   ar
    10    21    22   ar
    11    22    23   ar
    12    23    18    1
    13    18     1    1
    14     3     1    1
    15     3     4    1
    16     4     5    1
    17     5     6    1
    18     6     7   am
    19     7     8    2
    20     7    11    1
    21    11    12   ar
    22    12    13   ar
    23    13    14   ar
    24    14    15   ar
    25    15    16    1
    26    15    17   ar
    27     6     9   am
    28     9    10    2
    29    28    29   ar
    30    29    30   ar
    31    30    25   ar
    32    23    19   ar
    33     9     3    1
    34    17    11   ar
    35     1     2    1
@<TRIPOS>MOLECULE
*****
 32 35 0 0 0
SMALL
GASTEIGER

@<TRIPOS>ATOM
      1 N         144.5260  138.6537  162.1894 N.3     1  UNL1       -0.2863
      2 H         145.4386  139.0964  162.0818 H       1  UNL1        0.1240
      3 C         143.9040  139.2382  163.4229 C.3     1  UNL1        0.1341
      4 C         142.8802  138.5729  164.2941 C.3     1  UNL1        0.0471
      5 C         142.5401  139.5143  165.4113 C.3     1  UNL1        0.1031
      6 N         143.3538  140.7613  165.2306 N.am    1  UNL1       -0.2253
      7 C         143.3289  141.9673  166.1222 C.2     1  UNL1        0.2548
      8 O         144.2032  143.1464  165.8135 O.2     1  UNL1       -0.2695
      9 C         144.1968  140.5907  164.0016 C.2     1  UNL1        0.2459
     10 O         145.1629  141.5962  163.4486 O.2     1  UNL1       -0.2730
     11 C         142.4298  141.9941  167.3226 C.ar    1  UNL1        0.0548
     12 C         141.1146  142.7124  167.2585 C.ar    1  UNL1        0.0046
     13 C         140.2154  142.7392  168.4588 C.ar    1  UNL1        0.0010
     14 C         140.6315  142.0478  169.7232 C.ar    1  UNL1        0.0114
     15 C         141.9468  141.3295  169.7873 C.ar    1  UNL1        0.0578
     16 CL        142.3629  140.6380  171.0517 Cl      1  UNL1       -0.0822
     17 C         142.8460  141.3026  168.5870 C.ar    1  UNL1        0.0159
     18 C         143.8274  138.7748  160.8675 C.3     1  UNL1        0.1151
     19 N         141.6412  140.2471  160.4226 N.ar    1  UNL1       -0.3070
     20 C         141.3837  141.6707  160.0263 C.ar    1  UNL1        0.1786
     21 N         142.7094  142.3534  159.8627 N.ar    1  UNL1       -0.2226
     22 C         143.7862  141.3516  160.1580 C.ar    1  UNL1        0.1147
     23 C         143.1260  140.0499  160.5040 C.ar    1  UNL1        0.0739
     24 C         140.5972  139.2039  160.6905 C.3     1  UNL1        0.1340
     25 C         138.8124  138.8107  164.8026 C.ar    1  UNL1        0.0684
     26 C         139.1054  140.1695  164.2390 C.ar    1  UNL1        0.0100
     27 C         139.7003  140.3006  162.8683 C.ar    1  UNL1       -0.0017
     28 C         140.0023  139.0728  162.0612 C.ar    1  UNL1        0.0005
     29 C         139.7092  137.7140  162.6248 C.ar    1  UNL1       -0.0017
     30 C         139.1143  137.5830  163.9955 C.ar    1  UNL1        0.0100
     31 N         137.6225  138.5486  167.5440 N.1     1  UNL1       -0.1908
     32 C         138.2174  138.6796  166.1733 C.1     1  UNL1        0.1004
@<TRIPOS>BOND
     1    31    32    3
     2    32    25    1
     3    25    26   ar
     4    26    27   ar
     5    27    28   ar
     6    28    24    1
     7    24    19    1
     8    19    20   ar
     9    20    21   ar
    10    21    22   ar
    11    22    23   ar
    12    23    18    1
    13    18     1    1
    14     3     1    1
    15     3     4    1
    16     4     5    1
    17     5     6    1
    18     6     7   am
    19     7     8    2
    20     7    11    1
    21    11    12   ar
    22    12    13   ar
    23    13    14   ar
    24    14    15   ar
    25    15    16    1
    26    15    17   ar
    27     6     9   am
    28     9    10    2
    29    28    29   ar
    30    29    30   ar
    31    30    25   ar
    32    23    19   ar
    33     9     3    1
    34    17    11   ar
    35     1     2    1
@<TRIPOS>MOLECULE
*****
 32 35 0 0 0
SMALL
GASTEIGER

@<TRIPOS>ATOM
      1 N         140.5723  137.4277  162.6154 N.3     1  UNL1       -0.2863
      2 H         141.4020  136.8646  162.4288 H       1  UNL1        0.1240
      3 C         140.8442  138.1954  163.8751 C.3     1  UNL1        0.1341
      4 C         142.1220  138.9020  164.2185 C.3     1  UNL1        0.0471
      5 C         141.9536  139.5345  165.5682 C.3     1  UNL1        0.1031
      6 N         140.5718  139.2187  166.0588 N.am    1  UNL1       -0.2253
      7 C         139.9796  139.6541  167.3664 C.2     1  UNL1        0.2548
      8 O         138.5769  139.2599  167.7227 O.2     1  UNL1       -0.2695
      9 C         139.8861  138.3911  165.0125 C.2     1  UNL1        0.2459
     10 O         138.4879  137.8536  165.0899 O.2     1  UNL1       -0.2730
     11 C         140.7901  140.4839  168.3176 C.ar    1  UNL1        0.0548
     12 C         142.0446  139.9240  168.9197 C.ar    1  UNL1        0.0046
     13 C         142.8551  140.7537  169.8709 C.ar    1  UNL1        0.0010
     14 C         142.4110  142.1432  170.2199 C.ar    1  UNL1        0.0114
     15 C         141.1564  142.7031  169.6178 C.ar    1  UNL1        0.0578
     16 CL        140.7123  144.0927  169.9668 Cl      1  UNL1       -0.0822
     17 C         140.3459  141.8735  168.6666 C.ar    1  UNL1        0.0159
     18 C         140.2509  138.1592  161.3458 C.3     1  UNL1        0.1151
     19 N         139.7567  140.7784  161.1451 N.ar    1  UNL1       -0.3070
     20 C         138.5354  141.6401  161.2713 C.ar    1  UNL1        0.1786
     21 N         137.3694  140.7489  161.5817 N.ar    1  UNL1       -0.2226
     22 C         137.8701  139.3364  161.6475 C.ar    1  UNL1        0.1147
     23 C         139.3456  139.3546  161.3776 C.ar    1  UNL1        0.0739
     24 C         141.1454  141.2565  160.8400 C.3     1  UNL1        0.1340
     25 C         143.6742  143.0516  164.1008 C.ar    1  UNL1        0.0684
     26 C         144.3236  142.4942  162.8690 C.ar    1  UNL1        0.0100
     27 C         143.4807  141.8958  161.7821 C.ar    1  UNL1       -0.0017
     28 C         141.9883  141.8549  161.9270 C.ar    1  UNL1        0.0005
     29 C         141.3388  142.4123  163.1588 C.ar    1  UNL1       -0.0017
     30 C         142.1818  143.0106  164.2457 C.ar    1  UNL1        0.0100
     31 N         145.3600  144.2483  166.2747 N.1     1  UNL1       -0.1908
     32 C         144.5171  143.6500  165.1877 C.1     1  UNL1        0.1004
@<TRIPOS>BOND
     1    31    32    3
     2    32    25    1
     3    25    26   ar
     4    26    27   ar
     5    27    28   ar
     6    28    24    1
     7    24    19    1
     8    19    20   ar
     9    20    21   ar
    10    21    22   ar
    11    22    23   ar
    12    23    18    1
    13    18     1    1
    14     3     1    1
    15     3     4    1
    16     4     5    1
    17     5     6    1
    18     6     7   am
    19     7     8    2
    20     7    11    1
    21    11    12   ar
    22    12    13   ar
    23    13    14   ar
    24    14    15   ar
    25    15    16    1
    26    15    17   ar
    27     6     9   am
    28     9    10    2
    29    28    29   ar
    30    29    30   ar
    31    30    25   ar
    32    23    19   ar
    33     9     3    1
    34    17    11   ar
    35     1     2    1
