@<TRIPOS>MOLECULE
*****
 36 40 0 0 0
SMALL
GASTEIGER

@<TRIPOS>ATOM
      1 N         141.9916  139.8747  160.7253 N.am    1  UNL1       -0.2681
      2 C         142.9437  139.2118  161.6761 C.2     1  UNL1        0.3079
      3 O         144.0006  138.2841  161.1542 O.2     1  UNL1       -0.2522
      4 N         142.8389  139.4766  163.1488 N.am    1  UNL1       -0.2594
      5 C         143.7910  138.8137  164.0996 C.3     1  UNL1        0.1016
      6 C         143.6862  139.0785  165.5723 C.3     1  UNL1        0.0672
      7 C         142.6293  140.0062  166.0942 C.ar    1  UNL1        0.0614
      8 N         142.5245  140.2710  167.5670 N.ar    1  UNL1       -0.2310
      9 C         141.4677  141.1988  168.0888 C.ar    1  UNL1        0.1658
     10 N         140.5156  141.8617  167.1379 N.ar    1  UNL1       -0.2267
     11 C         140.6204  141.5969  165.6653 C.ar    1  UNL1        0.0814
     12 C         141.6773  140.6691  165.1434 C.ar    1  UNL1        0.0291
     13 C         141.7821  140.4043  163.6707 C.3     1  UNL1        0.1243
     14 H         141.2980  140.4836  161.0678 H       1  UNL1        0.1564
     15 C         141.3629  141.4636  169.5615 C.ar    1  UNL1        0.0853
     16 C         140.1948  141.1211  170.4380 C.ar    1  UNL1        0.1036
     17 C         138.9264  140.4536  169.9957 C.3     1  UNL1        0.0558
     18 N         140.5177  141.5632  171.8345 N.ar    1  UNL1       -0.0816
     19 O         141.8855  142.1790  171.8211 O.2     1  UNL1       -0.3580
     20 C         142.4078  142.1174  170.4163 C.ar    1  UNL1        0.1573
     21 C         143.7409  142.6213  169.9485 C.3     1  UNL1        0.0755
     22 C         139.6683  142.2598  164.7145 C.ar    1  UNL1        0.0135
     23 C         139.9761  143.6252  164.1750 C.ar    1  UNL1        0.0012
     24 C         139.0240  144.2881  163.2242 C.ar    1  UNL1        0.0000
     25 C         137.7641  143.5856  162.8128 C.ar    1  UNL1       -0.0003
     26 C         137.4564  142.2202  163.3522 C.ar    1  UNL1       -0.0042
     27 C         138.4084  141.5573  164.3030 C.ar    1  UNL1       -0.0204
     28 C         138.1007  140.1919  164.8424 C.3     1  UNL1        0.0311
     29 C         141.3463  138.2885  157.1451 C.ar    1  UNL1       -0.0210
     30 C         142.3059  139.0802  156.3071 C.ar    1  UNL1       -0.0042
     31 C         143.1608  140.1368  156.9418 C.ar    1  UNL1        0.0010
     32 C         143.0561  140.4016  158.4145 C.ar    1  UNL1        0.0147
     33 C         142.0964  139.6099  159.2525 C.ar    1  UNL1        0.0513
     34 C         141.2415  138.5534  158.6178 C.ar    1  UNL1        0.0104
     35 C         141.1265  136.1356  155.7076 C.3     1  UNL1        0.0050
     36 C         140.4914  137.2320  156.5104 C.3     1  UNL1        0.0264
@<TRIPOS>BOND
     1    35    36    1
     2    36    29    1
     3    29    30   ar
     4    30    31   ar
     5    31    32   ar
     6    32    33   ar
     7    33     1    1
     8     1     2   am
     9     2     3    2
    10     2     4   am
    11     4     5    1
    12     5     6    1
    13     6     7    1
    14     7     8   ar
    15     8     9   ar
    16     9    15    1
    17    15    16   ar
    18    16    17    1
    19    16    18   ar
    20    18    19   ar
    21    19    20   ar
    22    20    21    1
    23     9    10   ar
    24    10    11   ar
    25    11    22    1
    26    22    23   ar
    27    23    24   ar
    28    24    25   ar
    29    25    26   ar
    30    26    27   ar
    31    27    28    1
    32    11    12   ar
    33    12    13    1
    34    33    34   ar
    35    34    29   ar
    36    13     4    1
    37    12     7   ar
    38    20    15   ar
    39    27    22   ar
    40     1    14    1
@<TRIPOS>MOLECULE
*****
 36 40 0 0 0
SMALL
GASTEIGER

@<TRIPOS>ATOM
      1 N         141.9746  139.9259  160.7019 N.am    1  UNL1       -0.2681
      2 C         142.9176  139.2444  161.6485 C.2     1  UNL1        0.3079
      3 O         143.9661  138.3108  161.1204 O.2     1  UNL1       -0.2522
      4 N         142.8121  139.4965  163.1235 N.am    1  UNL1       -0.2594
      5 C         143.7551  138.8150  164.0702 C.3     1  UNL1        0.1016
      6 C         143.6496  139.0671  165.5450 C.3     1  UNL1        0.0672
      7 C         142.6011  140.0007  166.0732 C.ar    1  UNL1        0.0614
      8 N         142.4956  140.2528  167.5482 N.ar    1  UNL1       -0.2310
      9 C         141.4471  141.1865  168.0763 C.ar    1  UNL1        0.1658
     10 N         140.5040  141.8680  167.1296 N.ar    1  UNL1       -0.2267
     11 C         140.6095  141.6159  165.6547 C.ar    1  UNL1        0.0814
     12 C         141.6581  140.6822  165.1265 C.ar    1  UNL1        0.0291
     13 C         141.7636  140.4301  163.6517 C.3     1  UNL1        0.1243
     14 H         141.2864  140.5387  161.0485 H       1  UNL1        0.1564
     15 C         141.3415  141.4386  169.5512 C.ar    1  UNL1        0.0853
     16 C         142.3880  142.0807  170.4130 C.ar    1  UNL1        0.1036
     17 C         143.7236  142.5834  169.9512 C.3     1  UNL1        0.0558
     18 N         141.8642  142.1318  171.8177 N.ar    1  UNL1       -0.0816
     19 O         140.4941  141.5213  171.8240 O.2     1  UNL1       -0.3580
     20 C         140.1711  141.0928  170.4232 C.ar    1  UNL1        0.1573
     21 C         138.9006  140.4343  169.9735 C.3     1  UNL1        0.0755
     22 C         139.6665  142.2974  164.7080 C.ar    1  UNL1        0.0135
     23 C         139.9849  143.6685  164.1896 C.ar    1  UNL1        0.0012
     24 C         139.0418  144.3500  163.2429 C.ar    1  UNL1        0.0000
     25 C         137.7805  143.6604  162.8146 C.ar    1  UNL1       -0.0003
     26 C         137.4621  142.2893  163.3331 C.ar    1  UNL1       -0.0042
     27 C         138.4051  141.6078  164.2797 C.ar    1  UNL1       -0.0204
     28 C         138.0868  140.2367  164.7982 C.3     1  UNL1        0.0311
     29 C         141.3550  138.3482  157.1134 C.ar    1  UNL1       -0.0210
     30 C         142.2909  139.1696  156.2772 C.ar    1  UNL1       -0.0042
     31 C         143.1214  140.2431  156.9158 C.ar    1  UNL1        0.0010
     32 C         143.0160  140.4952  158.3907 C.ar    1  UNL1        0.0147
     33 C         142.0801  139.6738  159.2269 C.ar    1  UNL1        0.0513
     34 C         141.2496  138.6003  158.5883 C.ar    1  UNL1        0.0104
     35 C         141.1910  136.1207  155.7863 C.3     1  UNL1        0.0050
     36 C         140.5245  137.2747  156.4747 C.3     1  UNL1        0.0264
@<TRIPOS>BOND
     1    35    36    1
     2    36    29    1
     3    29    30   ar
     4    30    31   ar
     5    31    32   ar
     6    32    33   ar
     7    33     1    1
     8     1     2   am
     9     2     3    2
    10     2     4   am
    11     4     5    1
    12     5     6    1
    13     6     7    1
    14     7     8   ar
    15     8     9   ar
    16     9    15    1
    17    15    16   ar
    18    16    17    1
    19    16    18   ar
    20    18    19   ar
    21    19    20   ar
    22    20    21    1
    23     9    10   ar
    24    10    11   ar
    25    11    22    1
    26    22    23   ar
    27    23    24   ar
    28    24    25   ar
    29    25    26   ar
    30    26    27   ar
    31    27    28    1
    32    11    12   ar
    33    12    13    1
    34    33    34   ar
    35    34    29   ar
    36    13     4    1
    37    12     7   ar
    38    20    15   ar
    39    27    22   ar
    40     1    14    1
@<TRIPOS>MOLECULE
*****
 36 40 0 0 0
SMALL
GASTEIGER

@<TRIPOS>ATOM
      1 N         141.9942  139.8864  160.7342 N.am    1  UNL1       -0.2681
      2 C         142.9259  139.2021  161.6900 C.2     1  UNL1        0.3079
      3 O         143.9654  138.2520  161.1735 O.2     1  UNL1       -0.2522
      4 N         142.8182  139.4679  163.1624 N.am    1  UNL1       -0.2594
      5 C         143.7499  138.7835  164.1182 C.3     1  UNL1        0.1016
      6 C         143.6421  139.0493  165.5905 C.3     1  UNL1        0.0672
      7 C         142.6026  139.9994  166.1070 C.ar    1  UNL1        0.0614
      8 N         142.4949  140.2652  167.5793 N.ar    1  UNL1       -0.2310
      9 C         141.4554  141.2153  168.0958 C.ar    1  UNL1        0.1658
     10 N         140.5237  141.8997  167.1400 N.ar    1  UNL1       -0.2267
     11 C         140.6314  141.6339  165.6677 C.ar    1  UNL1        0.0814
     12 C         141.6709  140.6838  165.1512 C.ar    1  UNL1        0.0291
     13 C         141.7787  140.4180  163.6789 C.3     1  UNL1        0.1243
     14 H         141.3120  140.5100  161.0732 H       1  UNL1        0.1564
     15 C         141.3477  141.4811  169.5681 C.ar    1  UNL1        0.0853
     16 C         140.1806  141.1330  170.4438 C.ar    1  UNL1        0.1036
     17 C         138.9164  140.4579  170.0010 C.3     1  UNL1        0.0558
     18 N         140.4997  141.5784  171.8402 N.ar    1  UNL1       -0.0816
     19 O         141.8640  142.2019  171.8274 O.2     1  UNL1       -0.3580
     20 C         142.3880  142.1417  170.4233 C.ar    1  UNL1        0.1573
     21 C         143.7188  142.6525  169.9562 C.3     1  UNL1        0.0755
     22 C         139.6997  142.3182  164.7119 C.ar    1  UNL1        0.0135
     23 C         140.0467  143.6713  164.1655 C.ar    1  UNL1        0.0012
     24 C         139.1149  144.3557  163.2096 C.ar    1  UNL1        0.0000
     25 C         137.8362  143.6868  162.8003 C.ar    1  UNL1       -0.0003
     26 C         137.4893  142.3336  163.3467 C.ar    1  UNL1       -0.0042
     27 C         138.4210  141.6493  164.3025 C.ar    1  UNL1       -0.0204
     28 C         138.0741  140.2962  164.8489 C.3     1  UNL1        0.0311
     29 C         143.3862  139.8746  157.0177 C.ar    1  UNL1       -0.0210
     30 C         142.3175  139.0891  156.3172 C.ar    1  UNL1       -0.0042
     31 C         141.1410  138.5694  157.0890 C.ar    1  UNL1        0.0010
     32 C         141.0332  138.8351  158.5613 C.ar    1  UNL1        0.0147
     33 C         142.1019  139.6206  159.2618 C.ar    1  UNL1        0.0513
     34 C         143.2785  140.1404  158.4900 C.ar    1  UNL1        0.0104
     35 C         145.2613  139.5090  155.2570 C.3     1  UNL1        0.0050
     36 C         144.5627  140.3944  156.2459 C.3     1  UNL1        0.0264
@<TRIPOS>BOND
     1    35    36    1
     2    36    29    1
     3    29    30   ar
     4    30    31   ar
     5    31    32   ar
     6    32    33   ar
     7    33     1    1
     8     1     2   am
     9     2     3    2
    10     2     4   am
    11     4     5    1
    12     5     6    1
    13     6     7    1
    14     7     8   ar
    15     8     9   ar
    16     9    15    1
    17    15    16   ar
    18    16    17    1
    19    16    18   ar
    20    18    19   ar
    21    19    20   ar
    22    20    21    1
    23     9    10   ar
    24    10    11   ar
    25    11    22    1
    26    22    23   ar
    27    23    24   ar
    28    24    25   ar
    29    25    26   ar
    30    26    27   ar
    31    27    28    1
    32    11    12   ar
    33    12    13    1
    34    33    34   ar
    35    34    29   ar
    36    13     4    1
    37    12     7   ar
    38    20    15   ar
    39    27    22   ar
    40     1    14    1
@<TRIPOS>MOLECULE
*****
 36 40 0 0 0
SMALL
GASTEIGER

@<TRIPOS>ATOM
      1 N         140.7815  143.9384  160.8980 N.am    1  UNL1       -0.2681
      2 C         139.8942  144.6227  161.8952 C.2     1  UNL1        0.3079
      3 O         138.9456  145.6936  161.4444 O.2     1  UNL1       -0.2522
      4 N         139.9555  144.2361  163.3433 N.am    1  UNL1       -0.2594
      5 C         139.0682  144.9204  164.3404 C.3     1  UNL1        0.1016
      6 C         139.1296  144.5338  165.7884 C.3     1  UNL1        0.0672
      7 C         140.0782  143.4629  166.2393 C.ar    1  UNL1        0.0614
      8 N         140.1395  143.0763  167.6873 N.ar    1  UNL1       -0.2310
      9 C         141.0881  142.0054  168.1382 C.ar    1  UNL1        0.1658
     10 N         141.9755  141.3210  167.1409 N.ar    1  UNL1       -0.2267
     11 C         141.9141  141.7077  165.6929 C.ar    1  UNL1        0.0814
     12 C         140.9655  142.7786  165.2421 C.ar    1  UNL1        0.0291
     13 C         140.9042  143.1652  163.7941 C.3     1  UNL1        0.1243
     14 H         141.4041  143.2355  161.1939 H       1  UNL1        0.1564
     15 C         141.1495  141.6188  169.5862 C.ar    1  UNL1        0.0853
     16 C         140.1008  140.8561  170.3403 C.ar    1  UNL1        0.1036
     17 C         138.8068  140.3462  169.7788 C.3     1  UNL1        0.0558
     18 N         140.5735  140.6929  171.7545 N.ar    1  UNL1       -0.0816
     19 O         141.9143  141.3548  171.8744 O.2     1  UNL1       -0.3580
     20 C         142.2702  141.9269  170.5343 C.ar    1  UNL1        0.1573
     21 C         143.5264  142.6758  170.2008 C.3     1  UNL1        0.0755
     22 C         142.8014  141.0233  164.6958 C.ar    1  UNL1        0.0135
     23 C         142.3428  139.7627  164.0246 C.ar    1  UNL1        0.0012
     24 C         143.2302  139.0784  163.0274 C.ar    1  UNL1        0.0000
     25 C         144.5761  139.6547  162.7014 C.ar    1  UNL1       -0.0003
     26 C         145.0347  140.9153  163.3725 C.ar    1  UNL1       -0.0042
     27 C         144.1474  141.5997  164.3697 C.ar    1  UNL1       -0.0204
     28 C         144.6060  142.8603  165.0408 C.3     1  UNL1        0.0311
     29 C         139.7378  143.9822  157.0693 C.ar    1  UNL1       -0.0210
     30 C         140.5975  145.0980  156.5539 C.ar    1  UNL1       -0.0042
     31 C         141.5186  145.8273  157.4865 C.ar    1  UNL1        0.0010
     32 C         141.5800  145.4408  158.9345 C.ar    1  UNL1        0.0147
     33 C         140.7202  144.3250  159.4499 C.ar    1  UNL1        0.0513
     34 C         139.7991  143.5957  158.5173 C.ar    1  UNL1        0.0104
     35 C         137.3962  142.9890  156.5398 C.3     1  UNL1        0.0050
     36 C         138.8167  143.2529  156.1368 C.3     1  UNL1        0.0264
@<TRIPOS>BOND
     1    35    36    1
     2    36    29    1
     3    29    30   ar
     4    30    31   ar
     5    31    32   ar
     6    32    33   ar
     7    33     1    1
     8     1     2   am
     9     2     3    2
    10     2     4   am
    11     4     5    1
    12     5     6    1
    13     6     7    1
    14     7     8   ar
    15     8     9   ar
    16     9    15    1
    17    15    16   ar
    18    16    17    1
    19    16    18   ar
    20    18    19   ar
    21    19    20   ar
    22    20    21    1
    23     9    10   ar
    24    10    11   ar
    25    11    22    1
    26    22    23   ar
    27    23    24   ar
    28    24    25   ar
    29    25    26   ar
    30    26    27   ar
    31    27    28    1
    32    11    12   ar
    33    12    13    1
    34    33    34   ar
    35    34    29   ar
    36    13     4    1
    37    12     7   ar
    38    20    15   ar
    39    27    22   ar
    40     1    14    1
@<TRIPOS>MOLECULE
*****
 36 40 0 0 0
SMALL
GASTEIGER

@<TRIPOS>ATOM
      1 N         142.2853  140.4414  160.7100 N.am    1  UNL1       -0.2681
      2 C         143.1131  139.6257  161.6583 C.2     1  UNL1        0.3079
      3 O         144.1023  138.6317  161.1260 O.2     1  UNL1       -0.2522
      4 N         142.9517  139.8040  163.1389 N.am    1  UNL1       -0.2594
      5 C         143.7794  138.9882  164.0872 C.3     1  UNL1        0.1016
      6 C         143.6180  139.1665  165.5678 C.3     1  UNL1        0.0672
      7 C         142.6287  140.1605  166.1001 C.ar    1  UNL1        0.0614
      8 N         142.4673  140.3387  167.5807 N.ar    1  UNL1       -0.2310
      9 C         141.4780  141.3327  168.1130 C.ar    1  UNL1        0.1658
     10 N         140.6502  142.1485  167.1646 N.ar    1  UNL1       -0.2267
     11 C         140.8117  141.9702  165.6841 C.ar    1  UNL1        0.0814
     12 C         141.8009  140.9762  165.1518 C.ar    1  UNL1        0.0291
     13 C         141.9624  140.7980  163.6712 C.3     1  UNL1        0.1243
     14 H         141.6360  141.0938  161.0594 H       1  UNL1        0.1564
     15 C         141.3166  141.5110  169.5935 C.ar    1  UNL1        0.0853
     16 C         142.3101  142.1496  170.5183 C.ar    1  UNL1        0.1036
     17 C         143.6396  142.7220  170.1248 C.3     1  UNL1        0.0558
     18 N         141.7408  142.1153  171.9056 N.ar    1  UNL1       -0.0816
     19 O         140.3954  141.4554  171.8383 O.2     1  UNL1       -0.3580
     20 C         140.1332  141.0820  170.4094 C.ar    1  UNL1        0.1573
     21 C         138.9035  140.3995  169.8879 C.3     1  UNL1        0.0755
     22 C         139.9839  142.7860  164.7358 C.ar    1  UNL1        0.0135
     23 C         140.4817  144.1192  164.2617 C.ar    1  UNL1        0.0012
     24 C         139.6539  144.9349  163.3134 C.ar    1  UNL1        0.0000
     25 C         138.3282  144.4175  162.8392 C.ar    1  UNL1       -0.0003
     26 C         137.8304  143.0843  163.3133 C.ar    1  UNL1       -0.0042
     27 C         138.6582  142.2685  164.2615 C.ar    1  UNL1       -0.0204
     28 C         138.1603  140.9354  164.7356 C.3     1  UNL1        0.0311
     29 C         143.8951  140.4725  157.0826 C.ar    1  UNL1       -0.0210
     30 C         142.7697  139.9068  156.2682 C.ar    1  UNL1       -0.0042
     31 C         141.4828  139.5192  156.9344 C.ar    1  UNL1        0.0010
     32 C         141.3213  139.6974  158.4149 C.ar    1  UNL1        0.0147
     33 C         142.4467  140.2632  159.2294 C.ar    1  UNL1        0.0513
     34 C         143.7336  140.6507  158.5632 C.ar    1  UNL1        0.0104
     35 C         145.9266  142.0788  156.8751 C.3     1  UNL1        0.0050
     36 C         145.1820  140.8601  156.4165 C.3     1  UNL1        0.0264
@<TRIPOS>BOND
     1    35    36    1
     2    36    29    1
     3    29    30   ar
     4    30    31   ar
     5    31    32   ar
     6    32    33   ar
     7    33     1    1
     8     1     2   am
     9     2     3    2
    10     2     4   am
    11     4     5    1
    12     5     6    1
    13     6     7    1
    14     7     8   ar
    15     8     9   ar
    16     9    15    1
    17    15    16   ar
    18    16    17    1
    19    16    18   ar
    20    18    19   ar
    21    19    20   ar
    22    20    21    1
    23     9    10   ar
    24    10    11   ar
    25    11    22    1
    26    22    23   ar
    27    23    24   ar
    28    24    25   ar
    29    25    26   ar
    30    26    27   ar
    31    27    28    1
    32    11    12   ar
    33    12    13    1
    34    33    34   ar
    35    34    29   ar
    36    13     4    1
    37    12     7   ar
    38    20    15   ar
    39    27    22   ar
    40     1    14    1
@<TRIPOS>MOLECULE
*****
 36 40 0 0 0
SMALL
GASTEIGER

@<TRIPOS>ATOM
      1 N         139.5410  140.6688  160.7200 N.am    1  UNL1       -0.2681
      2 C         138.6849  139.9513  161.7212 C.2     1  UNL1        0.3079
      3 O         137.5380  139.1035  161.2566 O.2     1  UNL1       -0.2522
      4 N         138.9758  140.0817  163.1870 N.am    1  UNL1       -0.2594
      5 C         138.1197  139.3643  164.1881 C.3     1  UNL1        0.1016
      6 C         138.4105  139.4946  165.6538 C.3     1  UNL1        0.0672
      7 C         139.5574  140.3425  166.1184 C.ar    1  UNL1        0.0614
      8 N         139.8483  140.4728  167.5842 N.ar    1  UNL1       -0.2310
      9 C         140.9952  141.3207  168.0487 C.ar    1  UNL1        0.1658
     10 N         141.8513  142.0381  167.0475 N.ar    1  UNL1       -0.2267
     11 C         141.5604  141.9077  165.5817 C.ar    1  UNL1        0.0814
     12 C         140.4135  141.0599  165.1172 C.ar    1  UNL1        0.0291
     13 C         140.1227  140.9295  163.6515 C.3     1  UNL1        0.1243
     14 H         140.2937  141.2252  161.0249 H       1  UNL1        0.1564
     15 C         141.2860  141.4510  169.5144 C.ar    1  UNL1        0.0853
     16 C         141.0041  142.6535  170.3657 C.ar    1  UNL1        0.1036
     17 C         140.3817  143.9366  169.9008 C.3     1  UNL1        0.0558
     18 N         141.4537  142.3475  171.7637 N.ar    1  UNL1       -0.0816
     19 O         142.0135  140.9559  171.7763 O.2     1  UNL1       -0.3580
     20 C         141.9099  140.4019  170.3862 C.ar    1  UNL1        0.1573
     21 C         142.3525  139.0382  169.9454 C.3     1  UNL1        0.0755
     22 C         142.4165  142.6252  164.5806 C.ar    1  UNL1        0.0135
     23 C         142.0314  143.9965  164.1103 C.ar    1  UNL1        0.0012
     24 C         142.8875  144.7139  163.1090 C.ar    1  UNL1        0.0000
     25 C         144.1287  144.0600  162.5782 C.ar    1  UNL1       -0.0003
     26 C         144.5138  142.6887  163.0485 C.ar    1  UNL1       -0.0042
     27 C         143.6577  141.9713  164.0496 C.ar    1  UNL1       -0.0204
     28 C         144.0428  140.5999  164.5199 C.3     1  UNL1        0.0311
     29 C         139.4634  139.2181  157.0268 C.ar    1  UNL1       -0.0210
     30 C         138.6686  140.2776  156.3227 C.ar    1  UNL1       -0.0042
     31 C         138.1646  141.4675  157.0844 C.ar    1  UNL1        0.0010
     32 C         138.4553  141.5979  158.5501 C.ar    1  UNL1        0.0147
     33 C         139.2502  140.5384  159.2542 C.ar    1  UNL1        0.0513
     34 C         139.7542  139.3485  158.4925 C.ar    1  UNL1        0.0104
     35 C         138.9989  137.1146  155.5744 C.3     1  UNL1        0.0050
     36 C         139.9675  138.0282  156.2651 C.3     1  UNL1        0.0264
@<TRIPOS>BOND
     1    35    36    1
     2    36    29    1
     3    29    30   ar
     4    30    31   ar
     5    31    32   ar
     6    32    33   ar
     7    33     1    1
     8     1     2   am
     9     2     3    2
    10     2     4   am
    11     4     5    1
    12     5     6    1
    13     6     7    1
    14     7     8   ar
    15     8     9   ar
    16     9    15    1
    17    15    16   ar
    18    16    17    1
    19    16    18   ar
    20    18    19   ar
    21    19    20   ar
    22    20    21    1
    23     9    10   ar
    24    10    11   ar
    25    11    22    1
    26    22    23   ar
    27    23    24   ar
    28    24    25   ar
    29    25    26   ar
    30    26    27   ar
    31    27    28    1
    32    11    12   ar
    33    12    13    1
    34    33    34   ar
    35    34    29   ar
    36    13     4    1
    37    12     7   ar
    38    20    15   ar
    39    27    22   ar
    40     1    14    1
@<TRIPOS>MOLECULE
*****
 36 40 0 0 0
SMALL
GASTEIGER

@<TRIPOS>ATOM
      1 N         139.6934  140.5232  160.7690 N.am    1  UNL1       -0.2681
      2 C         139.0496  139.5733  161.7350 C.2     1  UNL1        0.3079
      3 O         138.1480  138.4862  161.2297 O.2     1  UNL1       -0.2522
      4 N         139.3074  139.7105  163.2063 N.am    1  UNL1       -0.2594
      5 C         138.6636  138.7606  164.1723 C.3     1  UNL1        0.1016
      6 C         138.9214  138.8978  165.6436 C.3     1  UNL1        0.0672
      7 C         139.8230  139.9849  166.1489 C.ar    1  UNL1        0.0614
      8 N         140.0808  140.1221  167.6202 N.ar    1  UNL1       -0.2310
      9 C         140.9824  141.2092  168.1255 C.ar    1  UNL1        0.1658
     10 N         141.6262  142.1592  167.1594 N.ar    1  UNL1       -0.2267
     11 C         141.3684  142.0219  165.6882 C.ar    1  UNL1        0.0814
     12 C         140.4668  140.9348  165.1829 C.ar    1  UNL1        0.0291
     13 C         140.2090  140.7976  163.7116 C.3     1  UNL1        0.1243
     14 H         140.2852  141.2367  161.1006 H       1  UNL1        0.1564
     15 C         141.2402  141.3465  169.5968 C.ar    1  UNL1        0.0853
     16 C         140.8935  142.5335  170.4457 C.ar    1  UNL1        0.1036
     17 C         140.2281  143.7918  169.9724 C.3     1  UNL1        0.0558
     18 N         141.3290  142.2414  171.8511 N.ar    1  UNL1       -0.0816
     19 O         141.9448  140.8738  171.8706 O.2     1  UNL1       -0.3580
     20 C         141.8899  140.3207  170.4774 C.ar    1  UNL1        0.1573
     21 C         142.3959  138.9776  170.0415 C.3     1  UNL1        0.0755
     22 C         142.0122  142.9718  164.7222 C.ar    1  UNL1        0.0135
     23 C         143.3938  142.6961  164.2072 C.ar    1  UNL1        0.0012
     24 C         144.0376  143.6461  163.2412 C.ar    1  UNL1        0.0000
     25 C         143.2998  144.8717  162.7902 C.ar    1  UNL1       -0.0003
     26 C         141.9182  145.1475  163.3051 C.ar    1  UNL1       -0.0042
     27 C         141.2744  144.1976  164.2711 C.ar    1  UNL1       -0.0204
     28 C         139.8928  144.4733  164.7861 C.3     1  UNL1        0.0311
     29 C         137.8974  140.7633  157.2381 C.ar    1  UNL1       -0.0210
     30 C         138.9200  140.1117  156.3551 C.ar    1  UNL1       -0.0042
     31 C         140.2004  139.5973  156.9434 C.ar    1  UNL1        0.0010
     32 C         140.4582  139.7345  158.4146 C.ar    1  UNL1        0.0147
     33 C         139.4356  140.3860  159.2976 C.ar    1  UNL1        0.0513
     34 C         138.1553  140.9004  158.7094 C.ar    1  UNL1        0.0104
     35 C         136.6474  142.3903  155.6444 C.3     1  UNL1        0.0050
     36 C         136.6171  141.2776  156.6499 C.3     1  UNL1        0.0264
@<TRIPOS>BOND
     1    35    36    1
     2    36    29    1
     3    29    30   ar
     4    30    31   ar
     5    31    32   ar
     6    32    33   ar
     7    33     1    1
     8     1     2   am
     9     2     3    2
    10     2     4   am
    11     4     5    1
    12     5     6    1
    13     6     7    1
    14     7     8   ar
    15     8     9   ar
    16     9    15    1
    17    15    16   ar
    18    16    17    1
    19    16    18   ar
    20    18    19   ar
    21    19    20   ar
    22    20    21    1
    23     9    10   ar
    24    10    11   ar
    25    11    22    1
    26    22    23   ar
    27    23    24   ar
    28    24    25   ar
    29    25    26   ar
    30    26    27   ar
    31    27    28    1
    32    11    12   ar
    33    12    13    1
    34    33    34   ar
    35    34    29   ar
    36    13     4    1
    37    12     7   ar
    38    20    15   ar
    39    27    22   ar
    40     1    14    1
@<TRIPOS>MOLECULE
*****
 36 40 0 0 0
SMALL
GASTEIGER

@<TRIPOS>ATOM
      1 N         139.6661  140.2977  160.8155 N.am    1  UNL1       -0.2681
      2 C         138.9405  139.4585  161.8250 C.2     1  UNL1        0.3079
      3 O         137.9360  138.4410  161.3716 O.2     1  UNL1       -0.2522
      4 N         139.2195  139.6367  163.2881 N.am    1  UNL1       -0.2594
      5 C         138.4940  138.7974  164.2976 C.3     1  UNL1        0.1016
      6 C         138.7730  138.9756  165.7606 C.3     1  UNL1        0.0672
      7 C         139.7776  139.9931  166.2140 C.ar    1  UNL1        0.0614
      8 N         140.0566  140.1713  167.6771 N.ar    1  UNL1       -0.2310
      9 C         141.0612  141.1887  168.1305 C.ar    1  UNL1        0.1658
     10 N         141.7867  142.0280  167.1209 N.ar    1  UNL1       -0.2267
     11 C         141.5077  141.8498  165.6580 C.ar    1  UNL1        0.0814
     12 C         140.5031  140.8323  165.2045 C.ar    1  UNL1        0.0291
     13 C         140.2241  140.6541  163.7415 C.3     1  UNL1        0.1243
     14 H         140.3254  140.9655  161.1131 H       1  UNL1        0.1564
     15 C         141.3402  141.3669  169.5935 C.ar    1  UNL1        0.0853
     16 C         141.0377  142.5910  170.4061 C.ar    1  UNL1        0.1036
     17 C         140.4031  143.8517  169.8984 C.3     1  UNL1        0.0558
     18 N         141.4813  142.3330  171.8156 N.ar    1  UNL1       -0.0816
     19 O         142.0579  140.9494  171.8741 O.2     1  UNL1       -0.3580
     20 C         141.9707  140.3524  170.5008 C.ar    1  UNL1        0.1573
     21 C         142.4329  138.9816  170.1044 C.3     1  UNL1        0.0755
     22 C         142.2332  142.6891  164.6484 C.ar    1  UNL1        0.0135
     23 C         141.6622  144.0085  164.2205 C.ar    1  UNL1        0.0012
     24 C         142.3878  144.8478  163.2109 C.ar    1  UNL1        0.0000
     25 C         143.6844  144.3676  162.6293 C.ar    1  UNL1       -0.0003
     26 C         144.2554  143.0482  163.0572 C.ar    1  UNL1       -0.0042
     27 C         143.5299  142.2090  164.0667 C.ar    1  UNL1       -0.0204
     28 C         144.1009  140.8896  164.4946 C.3     1  UNL1        0.0311
     29 C         138.0537  140.7725  157.2204 C.ar    1  UNL1       -0.0210
     30 C         138.8290  139.7633  156.4265 C.ar    1  UNL1       -0.0042
     31 C         139.8833  138.9322  157.0956 C.ar    1  UNL1        0.0010
     32 C         140.1623  139.1103  158.5585 C.ar    1  UNL1        0.0147
     33 C         139.3871  140.1196  159.3524 C.ar    1  UNL1        0.0513
     34 C         138.3327  140.9507  158.6833 C.ar    1  UNL1        0.0104
     35 C         135.7244  140.9652  156.0859 C.3     1  UNL1        0.0050
     36 C         136.9994  141.6036  156.5513 C.3     1  UNL1        0.0264
@<TRIPOS>BOND
     1    35    36    1
     2    36    29    1
     3    29    30   ar
     4    30    31   ar
     5    31    32   ar
     6    32    33   ar
     7    33     1    1
     8     1     2   am
     9     2     3    2
    10     2     4   am
    11     4     5    1
    12     5     6    1
    13     6     7    1
    14     7     8   ar
    15     8     9   ar
    16     9    15    1
    17    15    16   ar
    18    16    17    1
    19    16    18   ar
    20    18    19   ar
    21    19    20   ar
    22    20    21    1
    23     9    10   ar
    24    10    11   ar
    25    11    22    1
    26    22    23   ar
    27    23    24   ar
    28    24    25   ar
    29    25    26   ar
    30    26    27   ar
    31    27    28    1
    32    11    12   ar
    33    12    13    1
    34    33    34   ar
    35    34    29   ar
    36    13     4    1
    37    12     7   ar
    38    20    15   ar
    39    27    22   ar
    40     1    14    1
@<TRIPOS>MOLECULE
*****
 36 40 0 0 0
SMALL
GASTEIGER

@<TRIPOS>ATOM
      1 N         139.6290  140.4143  160.7933 N.am    1  UNL1       -0.2681
      2 C         138.7796  139.7126  161.8111 C.2     1  UNL1        0.3079
      3 O         137.6469  138.8355  161.3665 O.2     1  UNL1       -0.2522
      4 N         139.0628  139.8880  163.2737 N.am    1  UNL1       -0.2594
      5 C         138.2133  139.1864  164.2916 C.3     1  UNL1        0.1016
      6 C         138.4965  139.3618  165.7541 C.3     1  UNL1        0.0672
      7 C         139.6292  140.2389  166.1987 C.ar    1  UNL1        0.0614
      8 N         139.9124  140.4143  167.6613 N.ar    1  UNL1       -0.2310
      9 C         141.0451  141.2914  168.1060 C.ar    1  UNL1        0.1658
     10 N         141.8946  141.9931  167.0881 N.ar    1  UNL1       -0.2267
     11 C         141.6114  141.8177  165.6256 C.ar    1  UNL1        0.0814
     12 C         140.4787  140.9406  165.1809 C.ar    1  UNL1        0.0291
     13 C         140.1954  140.7651  163.7184 C.3     1  UNL1        0.1243
     14 H         140.3724  140.9899  161.0852 H       1  UNL1        0.1564
     15 C         141.3283  141.4668  169.5685 C.ar    1  UNL1        0.0853
     16 C         141.9583  140.4493  170.4728 C.ar    1  UNL1        0.1036
     17 C         142.4157  139.0777  170.0734 C.3     1  UNL1        0.0558
     18 N         142.0506  141.0442  171.8467 N.ar    1  UNL1       -0.0816
     19 O         141.4777  142.4294  171.7915 O.2     1  UNL1       -0.3580
     20 C         141.0313  142.6906  170.3835 C.ar    1  UNL1        0.1573
     21 C         140.3989  143.9538  169.8790 C.3     1  UNL1        0.0755
     22 C         142.4608  142.5193  164.6077 C.ar    1  UNL1        0.0135
     23 C         142.0672  143.8789  164.1112 C.ar    1  UNL1        0.0012
     24 C         142.9167  144.5806  163.0933 C.ar    1  UNL1        0.0000
     25 C         144.1598  143.9226  162.5720 C.ar    1  UNL1       -0.0003
     26 C         144.5535  142.5631  163.0686 C.ar    1  UNL1       -0.0042
     27 C         143.7040  141.8614  164.0864 C.ar    1  UNL1       -0.0204
     28 C         144.0977  140.5018  164.5830 C.3     1  UNL1        0.0311
     29 C         139.5256  138.8261  157.1578 C.ar    1  UNL1       -0.0210
     30 C         138.7795  139.8880  156.4057 C.ar    1  UNL1       -0.0042
     31 C         138.3165  141.1253  157.1161 C.ar    1  UNL1        0.0010
     32 C         138.5997  141.3007  158.5786 C.ar    1  UNL1        0.0147
     33 C         139.3458  140.2389  159.3307 C.ar    1  UNL1        0.0513
     34 C         139.8088  139.0016  158.6203 C.ar    1  UNL1        0.0104
     35 C         139.1719  137.0176  155.3264 C.3     1  UNL1        0.0050
     36 C         139.9886  137.5888  156.4473 C.3     1  UNL1        0.0264
@<TRIPOS>BOND
     1    35    36    1
     2    36    29    1
     3    29    30   ar
     4    30    31   ar
     5    31    32   ar
     6    32    33   ar
     7    33     1    1
     8     1     2   am
     9     2     3    2
    10     2     4   am
    11     4     5    1
    12     5     6    1
    13     6     7    1
    14     7     8   ar
    15     8     9   ar
    16     9    15    1
    17    15    16   ar
    18    16    17    1
    19    16    18   ar
    20    18    19   ar
    21    19    20   ar
    22    20    21    1
    23     9    10   ar
    24    10    11   ar
    25    11    22    1
    26    22    23   ar
    27    23    24   ar
    28    24    25   ar
    29    25    26   ar
    30    26    27   ar
    31    27    28    1
    32    11    12   ar
    33    12    13    1
    34    33    34   ar
    35    34    29   ar
    36    13     4    1
    37    12     7   ar
    38    20    15   ar
    39    27    22   ar
    40     1    14    1
