@<TRIPOS>MOLECULE
*****
 44 50 0 0 0
SMALL
GASTEIGER

@<TRIPOS>ATOM
      1 C         144.3434  139.7371  163.8190 C.3     1  UNL1        0.0700
      2 C         143.6187  139.5631  165.1208 C.3     1  UNL1        0.0193
      3 C         142.3408  138.7791  165.1688 C.3     1  UNL1        0.0286
      4 C         141.7876  138.1691  163.9150 C.3     1  UNL1        0.0932
      5 C         142.5122  138.3431  162.6132 C.3     1  UNL1        0.0286
      6 C         143.7902  139.1272  162.5653 C.3     1  UNL1        0.0193
      7 O         142.4910  138.5902  163.8391 O.3     1  UNL1       -0.3572
      8 C         143.6465  139.2991  163.7956 C.3     1  UNL1        0.1562
      9 N         145.6212  140.5211  163.7710 N.3     1  UNL1       -0.2926
     10 H         145.8713  140.7360  164.7362 H       1  UNL1        0.1236
     11 C         145.6806  141.8128  163.0105 C.3     1  UNL1        0.1152
     12 O         139.9991  145.6330  159.2854 O.2     1  UNL1       -0.2707
     13 C         140.7254  145.3008  160.5551 C.2     1  UNL1        0.2718
     14 C         140.2840  145.9098  161.8529 C.3     1  UNL1        0.2898
     15 O         141.0102  145.5776  163.1227 O.3     1  UNL1       -0.4628
     16 C         142.1778  144.6364  163.0946 C.ar    1  UNL1        0.1708
     17 C         142.9040  144.3042  164.3644 C.ar    1  UNL1        0.0411
     18 C         144.0716  143.3630  164.3364 C.ar    1  UNL1        0.0193
     19 C         144.5130  142.7540  163.0385 C.ar    1  UNL1        0.0765
     20 N         143.7868  143.0862  161.7688 N.ar    1  UNL1       -0.2304
     21 C         142.6192  144.0274  161.7969 C.ar    1  UNL1        0.1682
     22 N         141.8929  144.3596  160.5271 N.am    1  UNL1       -0.2639
     23 H         142.1827  143.9599  159.6753 H       1  UNL1        0.1565
     24 C         140.5097  137.3851  163.9630 C.3     1  UNL1        0.0320
     25 C         139.2315  138.0582  164.3670 C.3     1  UNL1        0.0327
     26 C         138.6828  139.1835  163.5408 C.ar    1  UNL1        0.0261
     27 C         137.9807  138.8915  162.2478 C.ar    1  UNL1        0.1566
     28 F         137.8273  137.4743  161.7810 F       1  UNL1       -0.2028
     29 C         137.4319  140.0168  161.4217 C.ar    1  UNL1        0.1281
     30 N         137.5853  141.4340  161.8884 N.ar    1  UNL1       -0.2400
     31 C         138.2874  141.7260  163.1814 C.ar    1  UNL1        0.0990
     32 C         138.4408  143.1433  163.6482 C.ar    1  UNL1        0.0254
     33 C         139.1429  143.4352  164.9412 C.ar    1  UNL1        0.0593
     34 C         139.6917  142.3099  165.7674 C.ar    1  UNL1        0.2249
     35 N         139.5383  140.8927  165.3006 N.ar    1  UNL1       -0.2104
     36 C         138.8362  140.6007  164.0076 C.ar    1  UNL1        0.1002
     37 O         140.3938  142.6019  167.0603 O.3     1  UNL1       -0.4602
     38 C         141.7143  141.9562  167.3592 C.3     1  UNL1        0.2074
     39 C         141.8073  140.8913  168.4116 C.3     1  UNL1        0.0493
     40 C         142.4235  139.6245  168.9270 C.3     1  UNL1        0.0097
     41 C         141.3523  140.3138  169.7190 C.3     1  UNL1        0.0403
     42 C         140.4711  140.3784  170.9312 C.2     1  UNL1        0.0501
     43 O         139.3671  139.3788  171.1099 O.co2   1  UNL1       -0.5492
     44 O         140.6940  141.4425  171.9646 O.co2   1  UNL1       -0.5492
@<TRIPOS>UNITY_ATOM_ATTR
43 1
charge -1
@<TRIPOS>BOND
     1    12    13    2
     2    13    14    1
     3    14    15    1
     4    15    16    1
     5    16    17   ar
     6    17    18   ar
     7    18    19   ar
     8    19    11    1
     9    11     9    1
    10     9     1    1
    11     1     2    1
    12     2     3    1
    13     3     4    1
    14     4    24    1
    15    24    25    1
    16    25    26    1
    17    26    27   ar
    18    27    28    1
    19    27    29   ar
    20    29    30   ar
    21    30    31   ar
    22    31    32   ar
    23    32    33   ar
    24    33    34   ar
    25    34    37    1
    26    37    38    1
    27    39    38    1
    28    39    40    1
    29    40    41    1
    30    41    42    1
    31    42    43   ar
    32    42    44   ar
    33    34    35   ar
    34    35    36   ar
    35     4     5    1
    36     5     6    1
    37     4     7    1
    38     7     8    1
    39    19    20   ar
    40    20    21   ar
    41    21    22    1
    42    22    13   am
    43    21    16   ar
    44     6     1    1
    45     8     1    1
    46    36    26   ar
    47    36    31   ar
    48    41    39    1
    49     9    10    1
    50    22    23    1
@<TRIPOS>MOLECULE
*****
 44 50 0 0 0
SMALL
GASTEIGER

@<TRIPOS>ATOM
      1 C         138.0810  140.4640  161.1455 C.3     1  UNL1        0.0700
      2 C         137.5034  140.5421  162.5276 C.3     1  UNL1        0.0193
      3 C         137.4328  141.8616  163.2375 C.3     1  UNL1        0.0286
      4 C         137.9398  143.1030  162.5653 C.3     1  UNL1        0.0932
      5 C         138.5174  143.0249  161.1832 C.3     1  UNL1        0.0286
      6 C         138.5880  141.7053  160.4733 C.3     1  UNL1        0.0193
      7 O         137.9996  142.4027  162.1364 O.3     1  UNL1       -0.3572
      8 C         138.0634  141.2096  161.4945 C.3     1  UNL1        0.1562
      9 N         138.1516  139.1445  160.4356 N.3     1  UNL1       -0.2926
     10 H         137.5898  138.4881  160.9777 H       1  UNL1        0.1236
     11 C         139.4802  138.4882  160.2028 C.3     1  UNL1        0.1152
     12 O         146.0406  141.6665  162.9614 O.2     1  UNL1       -0.2707
     13 C         144.9201  140.6781  163.0945 C.2     1  UNL1        0.2718
     14 C         144.8659  139.7609  164.2801 C.3     1  UNL1        0.2898
     15 O         143.7454  138.7726  164.4131 O.3     1  UNL1       -0.4628
     16 C         142.6791  138.7015  163.3606 C.ar    1  UNL1        0.1708
     17 C         141.5586  137.7132  163.4936 C.ar    1  UNL1        0.0411
     18 C         140.4923  137.6421  162.4411 C.ar    1  UNL1        0.0193
     19 C         140.5465  138.5593  161.2554 C.ar    1  UNL1        0.0765
     20 N         141.6670  139.5476  161.1223 N.ar    1  UNL1       -0.2304
     21 C         142.7333  139.6187  162.1750 C.ar    1  UNL1        0.1682
     22 N         143.8538  140.6070  162.0419 N.am    1  UNL1       -0.2639
     23 H         143.8894  141.2090  161.2637 H       1  UNL1        0.1565
     24 C         137.8692  144.4225  163.2752 C.3     1  UNL1        0.0320
     25 C         138.7532  144.6860  164.4581 C.3     1  UNL1        0.0327
     26 C         140.2184  144.3737  164.3838 C.ar    1  UNL1        0.0261
     27 C         141.1123  145.1783  163.4873 C.ar    1  UNL1        0.1566
     28 F         140.5408  146.2953  162.6652 F       1  UNL1       -0.2028
     29 C         142.5775  144.8660  163.4130 C.ar    1  UNL1        0.1281
     30 N         143.1489  143.7491  164.2352 N.ar    1  UNL1       -0.2400
     31 C         142.2551  142.9445  165.1316 C.ar    1  UNL1        0.0990
     32 C         142.8265  141.8275  165.9538 C.ar    1  UNL1        0.0254
     33 C         141.9327  141.0229  166.8502 C.ar    1  UNL1        0.0593
     34 C         140.4674  141.3352  166.9245 C.ar    1  UNL1        0.2249
     35 N         139.8960  142.4521  166.1024 N.ar    1  UNL1       -0.2104
     36 C         140.7898  143.2567  165.2059 C.ar    1  UNL1        0.1002
     37 O         139.5736  140.5305  167.8210 O.3     1  UNL1       -0.4602
     38 C         139.5312  140.8188  169.2924 C.3     1  UNL1        0.2074
     39 C         140.1690  142.0650  169.8312 C.3     1  UNL1        0.0493
     40 C         140.0444  143.4578  170.3740 C.3     1  UNL1        0.0097
     41 C         141.3984  142.8307  170.2215 C.3     1  UNL1        0.0403
     42 C         142.8899  142.9107  170.3588 C.2     1  UNL1        0.0501
     43 O         143.5144  144.0535  171.1030 O.co2   1  UNL1       -0.5492
     44 O         143.7571  141.8477  169.7518 O.co2   1  UNL1       -0.5492
@<TRIPOS>UNITY_ATOM_ATTR
43 1
charge -1
@<TRIPOS>BOND
     1    12    13    2
     2    13    14    1
     3    14    15    1
     4    15    16    1
     5    16    17   ar
     6    17    18   ar
     7    18    19   ar
     8    19    11    1
     9    11     9    1
    10     9     1    1
    11     1     2    1
    12     2     3    1
    13     3     4    1
    14     4    24    1
    15    24    25    1
    16    25    26    1
    17    26    27   ar
    18    27    28    1
    19    27    29   ar
    20    29    30   ar
    21    30    31   ar
    22    31    32   ar
    23    32    33   ar
    24    33    34   ar
    25    34    37    1
    26    37    38    1
    27    39    38    1
    28    39    40    1
    29    40    41    1
    30    41    42    1
    31    42    43   ar
    32    42    44   ar
    33    34    35   ar
    34    35    36   ar
    35     4     5    1
    36     5     6    1
    37     4     7    1
    38     7     8    1
    39    19    20   ar
    40    20    21   ar
    41    21    22    1
    42    22    13   am
    43    21    16   ar
    44     6     1    1
    45     8     1    1
    46    36    26   ar
    47    36    31   ar
    48    41    39    1
    49     9    10    1
    50    22    23    1
@<TRIPOS>MOLECULE
*****
 44 50 0 0 0
SMALL
GASTEIGER

@<TRIPOS>ATOM
      1 C         137.9102  140.0082  162.5997 C.3     1  UNL1        0.0700
      2 C         138.0956  140.1609  164.0804 C.3     1  UNL1        0.0193
      3 C         138.0849  141.5265  164.7008 C.3     1  UNL1        0.0286
      4 C         137.8887  142.7396  163.8405 C.3     1  UNL1        0.0932
      5 C         137.7033  142.5869  162.3598 C.3     1  UNL1        0.0286
      6 C         137.7140  141.2212  161.7395 C.3     1  UNL1        0.0193
      7 O         137.8872  142.0119  163.4551 O.3     1  UNL1       -0.3572
      8 C         137.8969  140.7771  162.8941 C.3     1  UNL1        0.1562
      9 N         137.9209  138.6426  161.9794 N.3     1  UNL1       -0.2926
     10 H         137.7254  137.9777  162.7277 H       1  UNL1        0.1236
     11 C         139.1484  138.1498  161.2719 C.3     1  UNL1        0.1152
     12 O         144.1462  137.8811  167.2469 O.2     1  UNL1       -0.2707
     13 C         143.8386  138.2515  165.8262 C.2     1  UNL1        0.2718
     14 C         144.8893  138.9027  164.9766 C.3     1  UNL1        0.2898
     15 O         144.5817  139.2731  163.5560 O.3     1  UNL1       -0.4628
     16 C         143.2234  138.9923  162.9850 C.ar    1  UNL1        0.1708
     17 C         142.9158  139.3627  161.5643 C.ar    1  UNL1        0.0411
     18 C         141.5575  139.0819  160.9933 C.ar    1  UNL1        0.0193
     19 C         140.5067  138.4306  161.8429 C.ar    1  UNL1        0.0765
     20 N         140.8143  138.0602  163.2636 N.ar    1  UNL1       -0.2304
     21 C         142.1727  138.3411  163.8346 C.ar    1  UNL1        0.1682
     22 N         142.4803  137.9707  165.2552 N.am    1  UNL1       -0.2639
     23 H         141.7907  137.5432  165.8128 H       1  UNL1        0.1565
     24 C         137.8780  144.1052  164.4609 C.3     1  UNL1        0.0320
     25 C         139.1703  144.8211  164.7208 C.3     1  UNL1        0.0327
     26 C         140.3133  144.6779  163.7602 C.ar    1  UNL1        0.0261
     27 C         140.2270  145.2928  162.3946 C.ar    1  UNL1        0.1566
     28 F         138.9975  146.0507  161.9898 F       1  UNL1       -0.2028
     29 C         141.3701  145.1496  161.4340 C.ar    1  UNL1        0.1281
     30 N         142.5995  144.3916  161.8388 N.ar    1  UNL1       -0.2400
     31 C         142.6859  143.7768  163.2043 C.ar    1  UNL1        0.0990
     32 C         143.9154  143.0188  163.6091 C.ar    1  UNL1        0.0254
     33 C         144.0018  142.4040  164.9746 C.ar    1  UNL1        0.0593
     34 C         142.8587  142.5471  165.9352 C.ar    1  UNL1        0.2249
     35 N         141.6292  143.3051  165.5304 N.ar    1  UNL1       -0.2104
     36 C         141.5428  143.9199  164.1650 C.ar    1  UNL1        0.1002
     37 O         142.9451  141.9323  167.3007 O.3     1  UNL1       -0.4602
     38 C         142.1065  140.7354  167.6387 C.3     1  UNL1        0.2074
     39 C         140.8871  140.8925  168.4981 C.3     1  UNL1        0.0493
     40 C         139.4972  140.4692  168.8709 C.3     1  UNL1        0.0097
     41 C         140.1652  141.5880  169.6139 C.3     1  UNL1        0.0403
     42 C         140.1340  142.6354  170.6872 C.2     1  UNL1        0.0501
     43 O         139.9244  144.0755  170.3239 O.co2   1  UNL1       -0.5492
     44 O         140.3123  142.2426  172.1239 O.co2   1  UNL1       -0.5492
@<TRIPOS>UNITY_ATOM_ATTR
43 1
charge -1
@<TRIPOS>BOND
     1    12    13    2
     2    13    14    1
     3    14    15    1
     4    15    16    1
     5    16    17   ar
     6    17    18   ar
     7    18    19   ar
     8    19    11    1
     9    11     9    1
    10     9     1    1
    11     1     2    1
    12     2     3    1
    13     3     4    1
    14     4    24    1
    15    24    25    1
    16    25    26    1
    17    26    27   ar
    18    27    28    1
    19    27    29   ar
    20    29    30   ar
    21    30    31   ar
    22    31    32   ar
    23    32    33   ar
    24    33    34   ar
    25    34    37    1
    26    37    38    1
    27    39    38    1
    28    39    40    1
    29    40    41    1
    30    41    42    1
    31    42    43   ar
    32    42    44   ar
    33    34    35   ar
    34    35    36   ar
    35     4     5    1
    36     5     6    1
    37     4     7    1
    38     7     8    1
    39    19    20   ar
    40    20    21   ar
    41    21    22    1
    42    22    13   am
    43    21    16   ar
    44     6     1    1
    45     8     1    1
    46    36    26   ar
    47    36    31   ar
    48    41    39    1
    49     9    10    1
    50    22    23    1
@<TRIPOS>MOLECULE
*****
 44 50 0 0 0
SMALL
GASTEIGER

@<TRIPOS>ATOM
      1 C         137.9217  140.1997  161.9819 C.3     1  UNL1        0.0700
      2 C         137.8821  140.0797  163.4766 C.3     1  UNL1        0.0193
      3 C         137.8293  141.3142  164.3269 C.3     1  UNL1        0.0286
      4 C         137.8162  142.6688  163.6826 C.3     1  UNL1        0.0932
      5 C         137.8559  142.7887  162.1879 C.3     1  UNL1        0.0286
      6 C         137.9086  141.5541  161.3376 C.3     1  UNL1        0.0193
      7 O         137.8456  142.0210  163.1752 O.3     1  UNL1       -0.3572
      8 C         137.8933  140.9047  162.4062 C.3     1  UNL1        0.1562
      9 N         137.9745  138.9652  161.1315 N.3     1  UNL1       -0.2926
     10 H         137.4834  138.2330  161.6446 H       1  UNL1        0.1236
     11 C         139.2991  138.3928  160.7217 C.3     1  UNL1        0.1152
     12 O         146.0111  141.7011  162.9021 O.2     1  UNL1       -0.2707
     13 C         144.9433  140.6687  163.1119 C.2     1  UNL1        0.2718
     14 C         145.0451  139.7066  164.2582 C.3     1  UNL1        0.2898
     15 O         143.9773  138.6742  164.4679 O.3     1  UNL1       -0.4628
     16 C         142.8078  138.6038  163.5314 C.ar    1  UNL1        0.1708
     17 C         141.7400  137.5714  163.7411 C.ar    1  UNL1        0.0411
     18 C         140.5705  137.5010  162.8046 C.ar    1  UNL1        0.0193
     19 C         140.4686  138.4631  161.6582 C.ar    1  UNL1        0.0765
     20 N         141.5364  139.4956  161.4485 N.ar    1  UNL1       -0.2304
     21 C         142.7060  139.5659  162.3851 C.ar    1  UNL1        0.1682
     22 N         143.7737  140.5983  162.1753 N.am    1  UNL1       -0.2639
     23 H         143.7069  141.2298  161.4230 H       1  UNL1        0.1565
     24 C         137.7634  143.9033  164.5329 C.3     1  UNL1        0.0320
     25 C         138.8720  144.9113  164.4614 C.3     1  UNL1        0.0327
     26 C         140.2687  144.4685  164.1405 C.ar    1  UNL1        0.0261
     27 C         140.8934  144.8475  162.8305 C.ar    1  UNL1        0.1566
     28 F         140.1213  145.6693  161.8413 F       1  UNL1       -0.2028
     29 C         142.2902  144.4047  162.5097 C.ar    1  UNL1        0.1281
     30 N         143.0623  143.5829  163.4988 N.ar    1  UNL1       -0.2400
     31 C         142.4377  143.2039  164.8088 C.ar    1  UNL1        0.0990
     32 C         143.2098  142.3821  165.7980 C.ar    1  UNL1        0.0254
     33 C         142.5851  142.0031  167.1081 C.ar    1  UNL1        0.0593
     34 C         141.1884  142.4459  167.4289 C.ar    1  UNL1        0.2249
     35 N         140.4162  143.2677  166.4397 N.ar    1  UNL1       -0.2104
     36 C         141.0409  143.6467  165.1297 C.ar    1  UNL1        0.1002
     37 O         140.5637  142.0669  168.7389 O.3     1  UNL1       -0.4602
     38 C         139.6431  140.8852  168.8168 C.3     1  UNL1        0.2074
     39 C         139.5407  139.9366  167.6593 C.3     1  UNL1        0.0493
     40 C         140.0715  139.4136  166.3575 C.3     1  UNL1        0.0097
     41 C         138.8326  138.8165  166.9564 C.3     1  UNL1        0.0403
     42 C         137.7086  137.8252  166.8964 C.2     1  UNL1        0.0501
     43 O         136.5918  137.8961  167.8952 O.co2   1  UNL1       -0.5492
     44 O         137.7013  136.7628  165.8374 O.co2   1  UNL1       -0.5492
@<TRIPOS>UNITY_ATOM_ATTR
43 1
charge -1
@<TRIPOS>BOND
     1    12    13    2
     2    13    14    1
     3    14    15    1
     4    15    16    1
     5    16    17   ar
     6    17    18   ar
     7    18    19   ar
     8    19    11    1
     9    11     9    1
    10     9     1    1
    11     1     2    1
    12     2     3    1
    13     3     4    1
    14     4    24    1
    15    24    25    1
    16    25    26    1
    17    26    27   ar
    18    27    28    1
    19    27    29   ar
    20    29    30   ar
    21    30    31   ar
    22    31    32   ar
    23    32    33   ar
    24    33    34   ar
    25    34    37    1
    26    37    38    1
    27    39    38    1
    28    39    40    1
    29    40    41    1
    30    41    42    1
    31    42    43   ar
    32    42    44   ar
    33    34    35   ar
    34    35    36   ar
    35     4     5    1
    36     5     6    1
    37     4     7    1
    38     7     8    1
    39    19    20   ar
    40    20    21   ar
    41    21    22    1
    42    22    13   am
    43    21    16   ar
    44     6     1    1
    45     8     1    1
    46    36    26   ar
    47    36    31   ar
    48    41    39    1
    49     9    10    1
    50    22    23    1
@<TRIPOS>MOLECULE
*****
 44 50 0 0 0
SMALL
GASTEIGER

@<TRIPOS>ATOM
      1 C         142.5675  144.3206  163.2809 C.3     1  UNL1        0.0700
      2 C         143.4472  143.7723  162.1966 C.3     1  UNL1        0.0193
      3 C         144.1660  142.4716  162.4001 C.3     1  UNL1        0.0286
      4 C         144.0052  141.7191  163.6877 C.3     1  UNL1        0.0932
      5 C         143.1255  142.2675  164.7720 C.3     1  UNL1        0.0286
      6 C         142.4067  143.5683  164.5685 C.3     1  UNL1        0.0193
      7 O         143.5911  142.4278  163.6223 O.3     1  UNL1       -0.3572
      8 C         142.9411  143.6040  163.4384 C.3     1  UNL1        0.1562
      9 N         141.8487  145.6213  163.0775 N.3     1  UNL1       -0.2926
     10 H         141.5959  145.9660  164.0036 H       1  UNL1        0.1236
     11 C         140.6028  145.6673  162.2433 C.3     1  UNL1        0.1152
     12 O         138.8020  139.1518  158.3632 O.2     1  UNL1       -0.2707
     13 C         138.5562  140.0945  159.5038 C.2     1  UNL1        0.2718
     14 C         137.4643  139.8080  160.4916 C.3     1  UNL1        0.2898
     15 O         137.2186  140.7507  161.6322 O.3     1  UNL1       -0.4628
     16 C         138.0646  141.9798  161.7850 C.ar    1  UNL1        0.1708
     17 C         137.8188  142.9225  162.9256 C.ar    1  UNL1        0.0411
     18 C         138.6649  144.1516  163.0784 C.ar    1  UNL1        0.0193
     19 C         139.7568  144.4382  162.0905 C.ar    1  UNL1        0.0765
     20 N         140.0025  143.4955  160.9499 N.ar    1  UNL1       -0.2304
     21 C         139.1564  142.2663  160.7972 C.ar    1  UNL1        0.1682
     22 N         139.4022  141.3236  159.6566 N.am    1  UNL1       -0.2639
     23 H         140.1188  141.5116  159.0083 H       1  UNL1        0.1565
     24 C         144.7240  140.4184  163.8911 C.3     1  UNL1        0.0320
     25 C         143.9507  139.1798  164.2344 C.3     1  UNL1        0.0327
     26 C         142.8500  138.7084  163.3310 C.ar    1  UNL1        0.0261
     27 C         143.1578  138.3122  161.9174 C.ar    1  UNL1        0.1566
     28 F         144.5663  138.3875  161.4072 F       1  UNL1       -0.2028
     29 C         142.0570  137.8408  161.0140 C.ar    1  UNL1        0.1281
     30 N         140.6485  137.7656  161.5242 N.ar    1  UNL1       -0.2400
     31 C         140.3406  138.1618  162.9378 C.ar    1  UNL1        0.0990
     32 C         138.9321  138.0866  163.4480 C.ar    1  UNL1        0.0254
     33 C         138.6243  138.4828  164.8616 C.ar    1  UNL1        0.0593
     34 C         139.7250  138.9542  165.7650 C.ar    1  UNL1        0.2249
     35 N         141.1336  139.0294  165.2548 N.ar    1  UNL1       -0.2104
     36 C         141.4414  138.6332  163.8412 C.ar    1  UNL1        0.1002
     37 O         139.4172  139.3504  167.1786 O.3     1  UNL1       -0.4602
     38 C         140.4545  140.0529  168.0034 C.3     1  UNL1        0.2074
     39 C         140.4389  141.5489  168.1128 C.3     1  UNL1        0.0493
     40 C         140.5177  142.8996  167.4653 C.3     1  UNL1        0.0097
     41 C         140.3330  142.7891  168.9498 C.3     1  UNL1        0.0403
     42 C         140.1652  143.4414  170.2901 C.2     1  UNL1        0.0501
     43 O         140.1299  142.6027  171.5332 O.co2   1  UNL1       -0.5492
     44 O         140.0326  144.9324  170.3872 O.co2   1  UNL1       -0.5492
@<TRIPOS>UNITY_ATOM_ATTR
43 1
charge -1
@<TRIPOS>BOND
     1    12    13    2
     2    13    14    1
     3    14    15    1
     4    15    16    1
     5    16    17   ar
     6    17    18   ar
     7    18    19   ar
     8    19    11    1
     9    11     9    1
    10     9     1    1
    11     1     2    1
    12     2     3    1
    13     3     4    1
    14     4    24    1
    15    24    25    1
    16    25    26    1
    17    26    27   ar
    18    27    28    1
    19    27    29   ar
    20    29    30   ar
    21    30    31   ar
    22    31    32   ar
    23    32    33   ar
    24    33    34   ar
    25    34    37    1
    26    37    38    1
    27    39    38    1
    28    39    40    1
    29    40    41    1
    30    41    42    1
    31    42    43   ar
    32    42    44   ar
    33    34    35   ar
    34    35    36   ar
    35     4     5    1
    36     5     6    1
    37     4     7    1
    38     7     8    1
    39    19    20   ar
    40    20    21   ar
    41    21    22    1
    42    22    13   am
    43    21    16   ar
    44     6     1    1
    45     8     1    1
    46    36    26   ar
    47    36    31   ar
    48    41    39    1
    49     9    10    1
    50    22    23    1
@<TRIPOS>MOLECULE
*****
 44 50 0 0 0
SMALL
GASTEIGER

@<TRIPOS>ATOM
      1 C         138.2523  143.4665  163.0776 C.3     1  UNL1        0.0700
      2 C         138.8074  143.5968  161.6902 C.3     1  UNL1        0.0193
      3 C         138.6547  142.4696  160.7124 C.3     1  UNL1        0.0286
      4 C         137.9468  141.2121  161.1220 C.3     1  UNL1        0.0932
      5 C         137.3916  141.0819  162.5094 C.3     1  UNL1        0.0286
      6 C         137.5444  142.2091  163.4872 C.3     1  UNL1        0.0193
      7 O         138.0059  141.8028  161.6926 O.3     1  UNL1       -0.3572
      8 C         138.1441  142.8219  162.5768 C.3     1  UNL1        0.1562
      9 N         138.4051  144.5936  164.0554 N.3     1  UNL1       -0.2926
     10 H         138.4325  145.4550  163.5099 H       1  UNL1        0.1236
     11 C         139.5853  144.6292  164.9806 C.3     1  UNL1        0.1152
     12 O         145.3587  139.4208  164.4422 O.2     1  UNL1       -0.2707
     13 C         144.7937  140.7720  164.1182 C.2     1  UNL1        0.2718
     14 C         145.5883  141.7383  163.2906 C.3     1  UNL1        0.2898
     15 O         145.0234  143.0895  162.9666 O.3     1  UNL1       -0.4628
     16 C         143.6639  143.4745  163.4701 C.ar    1  UNL1        0.1708
     17 C         143.0989  144.8257  163.1460 C.ar    1  UNL1        0.0411
     18 C         141.7394  145.2106  163.6495 C.ar    1  UNL1        0.0193
     19 C         140.9448  144.2443  164.4771 C.ar    1  UNL1        0.0765
     20 N         141.5097  142.8931  164.8012 N.ar    1  UNL1       -0.2304
     21 C         142.8693  142.5082  164.2976 C.ar    1  UNL1        0.1682
     22 N         143.4343  141.1569  164.6217 N.am    1  UNL1       -0.2639
     23 H         142.9127  140.5227  165.1648 H       1  UNL1        0.1565
     24 C         137.7940  140.0850  160.1442 C.3     1  UNL1        0.0320
     25 C         138.5171  138.7908  160.3725 C.3     1  UNL1        0.0327
     26 C         139.9507  138.8004  160.8136 C.ar    1  UNL1        0.0261
     27 C         141.0292  139.1995  159.8504 C.ar    1  UNL1        0.1566
     28 F         140.6739  139.5890  158.4461 F       1  UNL1       -0.2028
     29 C         142.4628  139.2091  160.2915 C.ar    1  UNL1        0.1281
     30 N         142.8181  138.8195  161.6958 N.ar    1  UNL1       -0.2400
     31 C         141.7397  138.4204  162.6590 C.ar    1  UNL1        0.0990
     32 C         142.0950  138.0309  164.0633 C.ar    1  UNL1        0.0254
     33 C         141.0165  137.6318  165.0265 C.ar    1  UNL1        0.0593
     34 C         139.5829  137.6222  164.5854 C.ar    1  UNL1        0.2249
     35 N         139.2276  138.0118  163.1811 N.ar    1  UNL1       -0.2104
     36 C         140.3060  138.4109  162.2179 C.ar    1  UNL1        0.1002
     37 O         138.5045  137.2232  165.5486 O.3     1  UNL1       -0.4602
     38 C         137.9216  138.2396  166.4851 C.3     1  UNL1        0.2074
     39 C         138.7685  139.3730  166.9834 C.3     1  UNL1        0.0493
     40 C         139.6157  140.5800  166.7087 C.3     1  UNL1        0.0097
     41 C         139.3880  140.1291  168.1211 C.3     1  UNL1        0.0403
     42 C         139.6143  140.3053  169.5934 C.2     1  UNL1        0.0501
     43 O         138.8550  141.3558  170.3485 O.co2   1  UNL1       -0.5492
     44 O         140.5998  139.4311  170.3107 O.co2   1  UNL1       -0.5492
@<TRIPOS>UNITY_ATOM_ATTR
43 1
charge -1
@<TRIPOS>BOND
     1    12    13    2
     2    13    14    1
     3    14    15    1
     4    15    16    1
     5    16    17   ar
     6    17    18   ar
     7    18    19   ar
     8    19    11    1
     9    11     9    1
    10     9     1    1
    11     1     2    1
    12     2     3    1
    13     3     4    1
    14     4    24    1
    15    24    25    1
    16    25    26    1
    17    26    27   ar
    18    27    28    1
    19    27    29   ar
    20    29    30   ar
    21    30    31   ar
    22    31    32   ar
    23    32    33   ar
    24    33    34   ar
    25    34    37    1
    26    37    38    1
    27    39    38    1
    28    39    40    1
    29    40    41    1
    30    41    42    1
    31    42    43   ar
    32    42    44   ar
    33    34    35   ar
    34    35    36   ar
    35     4     5    1
    36     5     6    1
    37     4     7    1
    38     7     8    1
    39    19    20   ar
    40    20    21   ar
    41    21    22    1
    42    22    13   am
    43    21    16   ar
    44     6     1    1
    45     8     1    1
    46    36    26   ar
    47    36    31   ar
    48    41    39    1
    49     9    10    1
    50    22    23    1
@<TRIPOS>MOLECULE
*****
 44 50 0 0 0
SMALL
GASTEIGER

@<TRIPOS>ATOM
      1 C         138.1813  139.5453  162.8920 C.3     1  UNL1        0.0700
      2 C         137.6269  140.6950  162.1041 C.3     1  UNL1        0.0193
      3 C         137.4783  142.0422  162.7467 C.3     1  UNL1        0.0286
      4 C         137.8842  142.2397  164.1772 C.3     1  UNL1        0.0932
      5 C         138.4386  141.0900  164.9651 C.3     1  UNL1        0.0286
      6 C         138.5871  139.7428  164.3224 C.3     1  UNL1        0.0193
      7 O         137.9842  141.4831  163.8682 O.3     1  UNL1       -0.3572
      8 C         138.1185  140.2649  163.2872 C.3     1  UNL1        0.1562
      9 N         138.3298  138.1981  162.2494 N.3     1  UNL1       -0.2926
     10 H         138.6511  137.5589  162.9764 H       1  UNL1        0.1236
     11 C         139.2526  138.0226  161.0798 C.3     1  UNL1        0.1152
     12 O         143.2154  144.0956  158.2224 O.2     1  UNL1       -0.2707
     13 C         143.1591  142.8735  159.0904 C.2     1  UNL1        0.2718
     14 C         144.3673  142.4536  159.8737 C.3     1  UNL1        0.2898
     15 O         144.3110  141.2315  160.7417 O.3     1  UNL1       -0.4628
     16 C         143.0464  140.4293  160.8262 C.ar    1  UNL1        0.1708
     17 C         142.9901  139.2072  161.6941 C.ar    1  UNL1        0.0411
     18 C         141.7256  138.4050  161.7787 C.ar    1  UNL1        0.0193
     19 C         140.5172  138.8248  160.9953 C.ar    1  UNL1        0.0765
     20 N         140.5735  140.0469  160.1274 N.ar    1  UNL1       -0.2304
     21 C         141.8382  140.8492  160.0428 C.ar    1  UNL1        0.1682
     22 N         141.8945  142.0713  159.1749 N.am    1  UNL1       -0.2639
     23 H         141.1014  142.3468  158.6608 H       1  UNL1        0.1565
     24 C         137.7356  143.5869  164.8198 C.3     1  UNL1        0.0320
     25 C         138.9414  144.4535  165.0325 C.3     1  UNL1        0.0327
     26 C         140.0895  144.3907  164.0692 C.ar    1  UNL1        0.0261
     27 C         139.9981  145.0927  162.7467 C.ar    1  UNL1        0.1566
     28 F         138.7587  145.8573  162.3875 F       1  UNL1       -0.2028
     29 C         141.1462  145.0299  161.7834 C.ar    1  UNL1        0.1281
     30 N         142.3857  144.2652  162.1426 N.ar    1  UNL1       -0.2400
     31 C         142.4771  143.5633  163.4651 C.ar    1  UNL1        0.0990
     32 C         143.7165  142.7986  163.8243 C.ar    1  UNL1        0.0254
     33 C         143.8078  142.0967  165.1468 C.ar    1  UNL1        0.0593
     34 C         142.6598  142.1595  166.1101 C.ar    1  UNL1        0.2249
     35 N         141.4203  142.9241  165.7509 N.ar    1  UNL1       -0.2104
     36 C         141.3289  143.6260  164.4284 C.ar    1  UNL1        0.1002
     37 O         142.7511  141.4575  167.4325 O.3     1  UNL1       -0.4602
     38 C         141.7838  140.3614  167.7682 C.3     1  UNL1        0.2074
     39 C         140.6290  140.6351  168.6857 C.3     1  UNL1        0.0493
     40 C         139.2491  140.3039  169.1717 C.3     1  UNL1        0.0097
     41 C         140.0090  141.4405  169.7888 C.3     1  UNL1        0.0403
     42 C         140.0896  142.5617  170.7820 C.2     1  UNL1        0.0501
     43 O         139.9267  143.9812  170.3255 O.co2   1  UNL1       -0.5492
     44 O         140.3332  142.2633  172.2318 O.co2   1  UNL1       -0.5492
@<TRIPOS>UNITY_ATOM_ATTR
43 1
charge -1
@<TRIPOS>BOND
     1    12    13    2
     2    13    14    1
     3    14    15    1
     4    15    16    1
     5    16    17   ar
     6    17    18   ar
     7    18    19   ar
     8    19    11    1
     9    11     9    1
    10     9     1    1
    11     1     2    1
    12     2     3    1
    13     3     4    1
    14     4    24    1
    15    24    25    1
    16    25    26    1
    17    26    27   ar
    18    27    28    1
    19    27    29   ar
    20    29    30   ar
    21    30    31   ar
    22    31    32   ar
    23    32    33   ar
    24    33    34   ar
    25    34    37    1
    26    37    38    1
    27    39    38    1
    28    39    40    1
    29    40    41    1
    30    41    42    1
    31    42    43   ar
    32    42    44   ar
    33    34    35   ar
    34    35    36   ar
    35     4     5    1
    36     5     6    1
    37     4     7    1
    38     7     8    1
    39    19    20   ar
    40    20    21   ar
    41    21    22    1
    42    22    13   am
    43    21    16   ar
    44     6     1    1
    45     8     1    1
    46    36    26   ar
    47    36    31   ar
    48    41    39    1
    49     9    10    1
    50    22    23    1
@<TRIPOS>MOLECULE
*****
 44 50 0 0 0
SMALL
GASTEIGER

@<TRIPOS>ATOM
      1 C         138.3128  142.4378  164.4150 C.3     1  UNL1        0.0700
      2 C         138.9221  141.5628  165.4701 C.3     1  UNL1        0.0193
      3 C         138.9947  140.0789  165.2639 C.3     1  UNL1        0.0286
      4 C         138.4580  139.4698  164.0025 C.3     1  UNL1        0.0932
      5 C         137.8487  140.3447  162.9474 C.3     1  UNL1        0.0286
      6 C         137.7761  141.8287  163.1537 C.3     1  UNL1        0.0193
      7 O         138.3960  140.2880  164.0705 O.3     1  UNL1       -0.3572
      8 C         138.3303  141.6298  164.2570 C.3     1  UNL1        0.1562
      9 N         138.2402  143.9217  164.6212 N.3     1  UNL1       -0.2926
     10 H         137.4915  144.2662  164.0202 H       1  UNL1        0.1236
     11 C         139.4423  144.7765  164.3485 C.3     1  UNL1        0.1152
     12 O         144.3885  141.6813  159.1809 O.2     1  UNL1       -0.2707
     13 C         143.3639  142.7165  159.5395 C.2     1  UNL1        0.2718
     14 C         142.9634  143.7550  158.5341 C.3     1  UNL1        0.2898
     15 O         141.9387  144.7902  158.8926 O.3     1  UNL1       -0.4628
     16 C         141.3146  144.7868  160.2566 C.ar    1  UNL1        0.1708
     17 C         140.2900  145.8220  160.6151 C.ar    1  UNL1        0.0411
     18 C         139.6659  145.8186  161.9791 C.ar    1  UNL1        0.0193
     19 C         140.0664  144.7800  162.9846 C.ar    1  UNL1        0.0765
     20 N         141.0910  143.7448  162.6260 N.ar    1  UNL1       -0.2304
     21 C         141.7151  143.7482  161.2620 C.ar    1  UNL1        0.1682
     22 N         142.7398  142.7131  160.9034 N.am    1  UNL1       -0.2639
     23 H         143.0027  142.0314  161.5633 H       1  UNL1        0.1565
     24 C         138.5306  137.9858  163.7963 C.3     1  UNL1        0.0320
     25 C         139.8586  137.3228  163.5799 C.3     1  UNL1        0.0327
     26 C         140.9542  138.0544  162.8627 C.ar    1  UNL1        0.0261
     27 C         140.8557  138.2909  161.3847 C.ar    1  UNL1        0.1566
     28 F         139.6615  137.7957  160.6239 F       1  UNL1       -0.2028
     29 C         141.9513  139.0225  160.6676 C.ar    1  UNL1        0.1281
     30 N         143.1454  139.5177  161.4284 N.ar    1  UNL1       -0.2400
     31 C         143.2440  139.2812  162.9063 C.ar    1  UNL1        0.0990
     32 C         144.4381  139.7764  163.6671 C.ar    1  UNL1        0.0254
     33 C         144.5366  139.5400  165.1451 C.ar    1  UNL1        0.0593
     34 C         143.4410  138.8083  165.8622 C.ar    1  UNL1        0.2249
     35 N         142.2469  138.3131  165.1015 N.ar    1  UNL1       -0.2104
     36 C         142.1483  138.5496  163.6235 C.ar    1  UNL1        0.1002
     37 O         143.5396  138.5719  167.3402 O.3     1  UNL1       -0.4602
     38 C         142.6342  139.3114  168.2801 C.3     1  UNL1        0.2074
     39 C         142.7581  140.7992  168.4258 C.3     1  UNL1        0.0493
     40 C         142.9998  142.1485  167.8166 C.3     1  UNL1        0.0097
     41 C         142.7310  142.0268  169.2873 C.3     1  UNL1        0.0403
     42 C         142.5602  142.6653  170.6338 C.2     1  UNL1        0.0501
     43 O         143.2603  143.9544  170.9468 O.co2   1  UNL1       -0.5492
     44 O         141.6892  142.0146  171.6673 O.co2   1  UNL1       -0.5492
@<TRIPOS>UNITY_ATOM_ATTR
43 1
charge -1
@<TRIPOS>BOND
     1    12    13    2
     2    13    14    1
     3    14    15    1
     4    15    16    1
     5    16    17   ar
     6    17    18   ar
     7    18    19   ar
     8    19    11    1
     9    11     9    1
    10     9     1    1
    11     1     2    1
    12     2     3    1
    13     3     4    1
    14     4    24    1
    15    24    25    1
    16    25    26    1
    17    26    27   ar
    18    27    28    1
    19    27    29   ar
    20    29    30   ar
    21    30    31   ar
    22    31    32   ar
    23    32    33   ar
    24    33    34   ar
    25    34    37    1
    26    37    38    1
    27    39    38    1
    28    39    40    1
    29    40    41    1
    30    41    42    1
    31    42    43   ar
    32    42    44   ar
    33    34    35   ar
    34    35    36   ar
    35     4     5    1
    36     5     6    1
    37     4     7    1
    38     7     8    1
    39    19    20   ar
    40    20    21   ar
    41    21    22    1
    42    22    13   am
    43    21    16   ar
    44     6     1    1
    45     8     1    1
    46    36    26   ar
    47    36    31   ar
    48    41    39    1
    49     9    10    1
    50    22    23    1
@<TRIPOS>MOLECULE
*****
 44 50 0 0 0
SMALL
GASTEIGER

@<TRIPOS>ATOM
      1 C         139.9293  144.0318  162.4823 C.3     1  UNL1        0.0700
      2 C         140.0852  143.8036  163.9567 C.3     1  UNL1        0.0193
      3 C         141.4532  143.7810  164.5716 C.3     1  UNL1        0.0286
      4 C         142.6653  143.9866  163.7122 C.3     1  UNL1        0.0932
      5 C         142.5094  144.2148  162.2379 C.3     1  UNL1        0.0286
      6 C         141.1414  144.2374  161.6229 C.3     1  UNL1        0.0193
      7 O         141.9363  144.0074  163.3300 O.3     1  UNL1       -0.3572
      8 C         140.6994  144.0279  162.7739 C.3     1  UNL1        0.1562
      9 N         138.5614  144.0544  161.8674 N.3     1  UNL1       -0.2926
     10 H         137.9175  144.3694  162.5931 H       1  UNL1        0.1236
     11 C         137.9792  142.7997  161.2869 C.3     1  UNL1        0.1152
     12 O         137.7477  138.5389  167.8093 O.2     1  UNL1       -0.2707
     13 C         138.0175  138.6480  166.3378 C.2     1  UNL1        0.2718
     14 C         138.4799  137.4460  165.5689 C.3     1  UNL1        0.2898
     15 O         138.7496  137.5550  164.0974 O.3     1  UNL1       -0.4628
     16 C         138.5570  138.8662  163.3948 C.ar    1  UNL1        0.1708
     17 C         138.8268  138.9753  161.9233 C.ar    1  UNL1        0.0411
     18 C         138.6342  140.2864  161.2206 C.ar    1  UNL1        0.0193
     19 C         138.1718  141.4886  161.9895 C.ar    1  UNL1        0.0765
     20 N         137.9021  141.3795  163.4610 N.ar    1  UNL1       -0.2304
     21 C         138.0947  140.0683  164.1636 C.ar    1  UNL1        0.1682
     22 N         137.8249  139.9592  165.6351 N.am    1  UNL1       -0.2639
     23 H         137.5214  140.7481  166.1398 H       1  UNL1        0.1565
     24 C         144.0332  143.9641  164.3271 C.3     1  UNL1        0.0320
     25 C         144.7728  142.6662  164.4638 C.3     1  UNL1        0.0327
     26 C         144.3841  141.4890  163.6195 C.ar    1  UNL1        0.0261
     27 C         144.8530  141.3984  162.1975 C.ar    1  UNL1        0.1566
     28 F         145.7106  142.4851  161.6199 F       1  UNL1       -0.2028
     29 C         144.4643  140.2212  161.3531 C.ar    1  UNL1        0.1281
     30 N         143.6067  139.1344  161.9307 N.ar    1  UNL1       -0.2400
     31 C         143.1378  139.2249  163.3526 C.ar    1  UNL1        0.0990
     32 C         142.2802  138.1382  163.9302 C.ar    1  UNL1        0.0254
     33 C         141.8113  138.2288  165.3522 C.ar    1  UNL1        0.0593
     34 C         142.2000  139.4060  166.1965 C.ar    1  UNL1        0.2249
     35 N         143.0576  140.4928  165.6190 N.ar    1  UNL1       -0.2104
     36 C         143.5265  140.4022  164.1971 C.ar    1  UNL1        0.1002
     37 O         141.7311  139.4965  167.6184 O.3     1  UNL1       -0.4602
     38 C         142.7049  139.8302  168.7095 C.3     1  UNL1        0.2074
     39 C         142.7505  141.2188  169.2752 C.3     1  UNL1        0.0493
     40 C         143.4959  142.4966  169.5231 C.3     1  UNL1        0.0097
     41 C         142.0842  142.3458  170.0071 C.3     1  UNL1        0.0403
     42 C         140.8844  142.9094  170.7091 C.2     1  UNL1        0.0501
     43 O         140.2007  144.1284  170.1646 O.co2   1  UNL1       -0.5492
     44 O         140.3683  142.2540  171.9558 O.co2   1  UNL1       -0.5492
@<TRIPOS>UNITY_ATOM_ATTR
43 1
charge -1
@<TRIPOS>BOND
     1    12    13    2
     2    13    14    1
     3    14    15    1
     4    15    16    1
     5    16    17   ar
     6    17    18   ar
     7    18    19   ar
     8    19    11    1
     9    11     9    1
    10     9     1    1
    11     1     2    1
    12     2     3    1
    13     3     4    1
    14     4    24    1
    15    24    25    1
    16    25    26    1
    17    26    27   ar
    18    27    28    1
    19    27    29   ar
    20    29    30   ar
    21    30    31   ar
    22    31    32   ar
    23    32    33   ar
    24    33    34   ar
    25    34    37    1
    26    37    38    1
    27    39    38    1
    28    39    40    1
    29    40    41    1
    30    41    42    1
    31    42    43   ar
    32    42    44   ar
    33    34    35   ar
    34    35    36   ar
    35     4     5    1
    36     5     6    1
    37     4     7    1
    38     7     8    1
    39    19    20   ar
    40    20    21   ar
    41    21    22    1
    42    22    13   am
    43    21    16   ar
    44     6     1    1
    45     8     1    1
    46    36    26   ar
    47    36    31   ar
    48    41    39    1
    49     9    10    1
    50    22    23    1
