@<TRIPOS>MOLECULE
*****
 39 43 0 0 0
SMALL
GASTEIGER

@<TRIPOS>ATOM
      1 C         142.1393  138.6951  164.6478 C.ar    1  UNL1        0.0655
      2 C         142.6328  138.4091  163.2605 C.ar    1  UNL1        0.0337
      3 C         143.7985  139.1736  162.7066 C.ar    1  UNL1        0.0862
      4 C         144.4708  140.2240  163.5400 C.ar    1  UNL1        0.1534
      5 C         143.9773  140.5100  164.9274 C.ar    1  UNL1        0.0539
      6 C         142.8115  139.7455  165.4813 C.ar    1  UNL1        0.0647
      7 N         142.3181  140.0316  166.8686 N.pl3   1  UNL1       -0.3036
      8 C         141.3577  141.1592  167.1053 C.3     1  UNL1        0.1082
      9 C         140.8642  141.4453  168.4927 C.3     1  UNL1        0.0938
     10 N         141.3312  140.6038  169.6432 N.3     1  UNL1       -0.2686
     11 C         140.8378  140.8898  171.0306 C.3     1  UNL1        0.0897
     12 C         142.2916  139.4761  169.4064 C.3     1  UNL1        0.0938
     13 C         142.7851  139.1900  168.0191 C.3     1  UNL1        0.1082
     14 C         139.6008  138.5344  165.1766 C.2     1  UNL1        0.2497
     15 O         139.3055  139.2280  164.9174 O.2     1  UNL1       -0.2698
     16 N         140.9736  137.9306  165.2016 N.am    1  UNL1       -0.2794
     17 H         141.1096  137.0326  165.5816 H       1  UNL1        0.1552
     18 C         137.6435  138.3332  166.8734 C.2     1  UNL1        0.0048
     19 C         138.4350  137.7700  165.7304 C.2     1  UNL1        0.0580
     20 N         144.2920  138.8876  161.3192 N.pl3   1  UNL1       -0.2801
     21 H         145.0187  138.2384  161.1794 H       1  UNL1        0.1552
     22 C         143.6781  139.5906  160.1450 C.ar    1  UNL1        0.2208
     23 N         143.5430  138.8789  158.8315 N.ar    1  UNL1       -0.2111
     24 C         142.9291  139.5820  157.6573 C.ar    1  UNL1        0.1147
     25 C         142.4503  140.9967  157.7965 C.ar    1  UNL1        0.0946
     26 CL        141.8365  141.6998  156.6223 Cl      1  UNL1       -0.0790
     27 C         142.5855  141.7084  159.1101 C.ar    1  UNL1        0.0992
     28 N         143.1993  141.0053  160.2842 N.ar    1  UNL1       -0.2126
     29 C         142.1067  143.1231  159.2493 C.ar    1  UNL1        0.0572
     30 C         142.4661  144.2681  158.3495 C.ar    1  UNL1        0.1235
     31 N         141.7660  145.4938  158.8569 N.ar    1  UNL1       -0.1634
     32 N         140.9739  145.1063  160.0703 N.ar    1  UNL1       -0.2281
     33 C         140.0881  145.8984  160.9857 C.ar    1  UNL1        0.1004
     34 C         139.4129  145.2252  162.1437 C.ar    1  UNL1        0.0207
     35 C         139.6234  143.7600  162.3862 C.ar    1  UNL1        0.0031
     36 C         140.5092  142.9680  161.4708 C.ar    1  UNL1        0.0193
     37 C         141.1845  143.6411  160.3129 C.ar    1  UNL1        0.0858
     38 O         145.6365  140.9885  162.9862 O.3     1  UNL1       -0.4701
     39 C         145.4447  142.3890  162.4844 C.3     1  UNL1        0.2525
@<TRIPOS>BOND
     1    18    19    2
     2    19    14    1
     3    14    15    2
     4    14    16   am
     5    16     1    1
     6     1     2   ar
     7     2     3   ar
     8     3    20    1
     9    20    22    1
    10    22    23   ar
    11    23    24   ar
    12    24    25   ar
    13    25    26    1
    14    25    27   ar
    15    27    29    1
    16    29    30   ar
    17    30    31   ar
    18    31    32   ar
    19    32    33   ar
    20    33    34   ar
    21    34    35   ar
    22    35    36   ar
    23    36    37   ar
    24    27    28   ar
    25     3     4   ar
    26     4    38    1
    27    38    39    1
    28     4     5   ar
    29     5     6   ar
    30     6     7    1
    31     7     8    1
    32     8     9    1
    33     9    10    1
    34    10    11    1
    35    10    12    1
    36    12    13    1
    37     6     1   ar
    38    13     7    1
    39    28    22   ar
    40    37    29   ar
    41    37    32   ar
    42    16    17    1
    43    20    21    1
@<TRIPOS>MOLECULE
*****
 39 43 0 0 0
SMALL
GASTEIGER

@<TRIPOS>ATOM
      1 C         142.9191  138.8823  158.1947 C.ar    1  UNL1        0.0655
      2 C         142.5833  137.9952  159.3567 C.ar    1  UNL1        0.0337
      3 C         143.0350  138.3656  160.7383 C.ar    1  UNL1        0.0862
      4 C         143.8226  139.6232  160.9579 C.ar    1  UNL1        0.1534
      5 C         144.1584  140.5104  159.7958 C.ar    1  UNL1        0.0539
      6 C         143.7066  140.1399  158.4142 C.ar    1  UNL1        0.0647
      7 N         144.0425  141.0271  157.2523 N.pl3   1  UNL1       -0.3036
      8 C         143.0916  142.1100  156.8362 C.3     1  UNL1        0.1082
      9 C         143.4274  142.9972  155.6742 C.3     1  UNL1        0.0938
     10 N         144.7140  142.8015  154.9285 N.3     1  UNL1       -0.2686
     11 C         145.0498  143.6887  153.7665 C.3     1  UNL1        0.0897
     12 C         145.6649  141.7186  155.3446 C.3     1  UNL1        0.0938
     13 C         145.3291  140.8314  156.5065 C.3     1  UNL1        0.1082
     14 C         143.3373  137.6519  155.9451 C.2     1  UNL1        0.2497
     15 O         144.0499  137.3081  156.0428 O.2     1  UNL1       -0.2698
     16 N         142.4674  138.5118  156.8131 N.am    1  UNL1       -0.2794
     17 H         141.5999  138.8331  156.4762 H       1  UNL1        0.1552
     18 C         142.5241  135.8601  154.2485 C.2     1  UNL1        0.0048
     19 C         142.8856  137.2813  154.5635 C.2     1  UNL1        0.0580
     20 N         142.6992  137.4785  161.9002 N.pl3   1  UNL1       -0.2801
     21 H         143.2180  136.6568  162.0582 H       1  UNL1        0.1552
     22 C         141.5730  137.8432  162.8215 C.ar    1  UNL1        0.2208
     23 N         141.2330  136.9525  163.9795 N.ar    1  UNL1       -0.2111
     24 C         140.1068  137.3172  164.9007 C.ar    1  UNL1        0.1147
     25 C         139.3207  138.5726  164.6639 C.ar    1  UNL1        0.0946
     26 CL        138.1945  138.9373  165.5852 Cl      1  UNL1       -0.0790
     27 C         139.6607  139.4633  163.5058 C.ar    1  UNL1        0.0992
     28 N         140.7869  139.0985  162.5846 N.ar    1  UNL1       -0.2126
     29 C         138.8746  140.7186  163.2690 C.ar    1  UNL1        0.0572
     30 C         137.8434  140.9246  162.1993 C.ar    1  UNL1        0.1235
     31 N         137.3132  142.3216  162.3295 N.ar    1  UNL1       -0.1634
     32 N         138.0165  142.9791  163.4797 N.ar    1  UNL1       -0.2281
     33 C         137.9030  144.3519  164.0734 C.ar    1  UNL1        0.1004
     34 C         138.7544  144.7340  165.2477 C.ar    1  UNL1        0.0207
     35 C         139.7195  143.7432  165.8283 C.ar    1  UNL1        0.0031
     36 C         139.8330  142.3704  165.2347 C.ar    1  UNL1        0.0193
     37 C         138.9816  141.9884  164.0604 C.ar    1  UNL1        0.0858
     38 O         144.2743  139.9937  162.3394 O.3     1  UNL1       -0.4701
     39 C         144.9602  141.3063  162.5775 C.3     1  UNL1        0.2525
@<TRIPOS>BOND
     1    18    19    2
     2    19    14    1
     3    14    15    2
     4    14    16   am
     5    16     1    1
     6     1     2   ar
     7     2     3   ar
     8     3    20    1
     9    20    22    1
    10    22    23   ar
    11    23    24   ar
    12    24    25   ar
    13    25    26    1
    14    25    27   ar
    15    27    29    1
    16    29    30   ar
    17    30    31   ar
    18    31    32   ar
    19    32    33   ar
    20    33    34   ar
    21    34    35   ar
    22    35    36   ar
    23    36    37   ar
    24    27    28   ar
    25     3     4   ar
    26     4    38    1
    27    38    39    1
    28     4     5   ar
    29     5     6   ar
    30     6     7    1
    31     7     8    1
    32     8     9    1
    33     9    10    1
    34    10    11    1
    35    10    12    1
    36    12    13    1
    37     6     1   ar
    38    13     7    1
    39    28    22   ar
    40    37    29   ar
    41    37    32   ar
    42    16    17    1
    43    20    21    1
@<TRIPOS>MOLECULE
*****
 39 43 0 0 0
SMALL
GASTEIGER

@<TRIPOS>ATOM
      1 C         138.9097  141.2883  165.2899 C.ar    1  UNL1        0.0655
      2 C         138.2704  142.0769  164.1856 C.ar    1  UNL1        0.0337
      3 C         138.8832  143.3698  163.7353 C.ar    1  UNL1        0.0862
      4 C         140.1354  143.8742  164.3893 C.ar    1  UNL1        0.1534
      5 C         140.7747  143.0855  165.4937 C.ar    1  UNL1        0.0539
      6 C         140.1618  141.7926  165.9439 C.ar    1  UNL1        0.0647
      7 N         140.8011  141.0041  167.0482 N.pl3   1  UNL1       -0.3036
      8 C         140.2477  141.0785  168.4404 C.3     1  UNL1        0.1082
      9 C         140.8870  140.2899  169.5448 C.3     1  UNL1        0.0938
     10 N         142.0797  139.4271  169.2569 N.3     1  UNL1       -0.2686
     11 C         142.7190  138.6385  170.3612 C.3     1  UNL1        0.0897
     12 C         142.6331  139.3527  167.8647 C.3     1  UNL1        0.0938
     13 C         141.9939  140.1412  166.7604 C.3     1  UNL1        0.1082
     14 C         138.8831  138.6904  165.2894 C.2     1  UNL1        0.2497
     15 O         139.4994  138.4913  164.8247 O.2     1  UNL1       -0.2698
     16 N         138.2968  139.9954  165.7402 N.am    1  UNL1       -0.2794
     17 H         137.5097  140.0033  166.3316 H       1  UNL1        0.1552
     18 C         137.3821  137.3690  166.9480 C.2     1  UNL1        0.0048
     19 C         138.2702  137.3974  165.7396 C.2     1  UNL1        0.0580
     20 N         138.2439  144.1584  162.6310 N.pl3   1  UNL1       -0.2801
     21 H         137.4554  144.7173  162.8181 H       1  UNL1        0.1552
     22 C         138.8060  144.0952  161.2417 C.ar    1  UNL1        0.2208
     23 N         139.7375  145.1677  160.7602 N.ar    1  UNL1       -0.2111
     24 C         140.2996  145.1046  159.3709 C.ar    1  UNL1        0.1147
     25 C         139.9300  143.9690  158.4632 C.ar    1  UNL1        0.0946
     26 CL        140.4920  143.9059  157.0739 Cl      1  UNL1       -0.0790
     27 C         138.9984  142.8965  158.9448 C.ar    1  UNL1        0.0992
     28 N         138.4364  142.9597  160.3341 N.ar    1  UNL1       -0.2126
     29 C         138.6288  141.7609  158.0371 C.ar    1  UNL1        0.0572
     30 C         139.0698  140.3348  158.1847 C.ar    1  UNL1        0.1235
     31 N         138.4669  139.5447  157.0612 N.ar    1  UNL1       -0.1634
     32 N         137.6533  140.4824  156.2194 N.ar    1  UNL1       -0.2281
     33 C         136.8342  140.2659  154.9816 C.ar    1  UNL1        0.1004
     34 C         136.1152  141.4192  154.3469 C.ar    1  UNL1        0.0207
     35 C         136.2153  142.7890  154.9500 C.ar    1  UNL1        0.0031
     36 C         137.0343  143.0054  156.1878 C.ar    1  UNL1        0.0193
     37 C         137.7533  141.8521  156.8225 C.ar    1  UNL1        0.0858
     38 O         140.7483  145.1671  163.9391 O.3     1  UNL1       -0.4701
     39 C         142.2298  145.2597  163.7231 C.3     1  UNL1        0.2525
@<TRIPOS>BOND
     1    18    19    2
     2    19    14    1
     3    14    15    2
     4    14    16   am
     5    16     1    1
     6     1     2   ar
     7     2     3   ar
     8     3    20    1
     9    20    22    1
    10    22    23   ar
    11    23    24   ar
    12    24    25   ar
    13    25    26    1
    14    25    27   ar
    15    27    29    1
    16    29    30   ar
    17    30    31   ar
    18    31    32   ar
    19    32    33   ar
    20    33    34   ar
    21    34    35   ar
    22    35    36   ar
    23    36    37   ar
    24    27    28   ar
    25     3     4   ar
    26     4    38    1
    27    38    39    1
    28     4     5   ar
    29     5     6   ar
    30     6     7    1
    31     7     8    1
    32     8     9    1
    33     9    10    1
    34    10    11    1
    35    10    12    1
    36    12    13    1
    37     6     1   ar
    38    13     7    1
    39    28    22   ar
    40    37    29   ar
    41    37    32   ar
    42    16    17    1
    43    20    21    1
@<TRIPOS>MOLECULE
*****
 39 43 0 0 0
SMALL
GASTEIGER

@<TRIPOS>ATOM
      1 C         139.9766  144.3646  157.8733 C.ar    1  UNL1        0.0655
      2 C         140.5760  144.8285  159.1677 C.ar    1  UNL1        0.0337
      3 C         140.1956  144.1568  160.4539 C.ar    1  UNL1        0.0862
      4 C         139.2156  143.0212  160.4455 C.ar    1  UNL1        0.1534
      5 C         138.6161  142.5573  159.1510 C.ar    1  UNL1        0.0539
      6 C         138.9967  143.2290  157.8650 C.ar    1  UNL1        0.0647
      7 N         138.3972  142.7651  156.5706 N.pl3   1  UNL1       -0.3036
      8 C         137.1228  143.3791  156.0718 C.3     1  UNL1        0.1082
      9 C         136.5232  142.9152  154.7773 C.3     1  UNL1        0.0938
     10 N         137.1980  141.8374  153.9820 N.3     1  UNL1       -0.2686
     11 C         136.5985  141.3735  152.6875 C.3     1  UNL1        0.0897
     12 C         138.4725  141.2234  154.4808 C.3     1  UNL1        0.0938
     13 C         139.0720  141.6873  155.7752 C.3     1  UNL1        0.1082
     14 C         139.6367  146.2762  156.1470 C.2     1  UNL1        0.2497
     15 O         139.0438  146.7110  156.4549 O.2     1  UNL1       -0.2698
     16 N         140.3571  145.0364  156.5872 N.am    1  UNL1       -0.2794
     17 H         141.0797  144.6636  156.0321 H       1  UNL1        0.1552
     18 C         139.6258  148.3752  154.6158 C.2     1  UNL1        0.0048
     19 C         140.0171  146.9480  154.8609 C.2     1  UNL1        0.0580
     20 N         140.7951  144.6207  161.7482 N.pl3   1  UNL1       -0.2801
     21 H         140.3973  145.3815  162.2302 H       1  UNL1        0.1552
     22 C         142.0005  143.9256  162.3082 C.ar    1  UNL1        0.2208
     23 N         143.3757  144.3588  161.8947 N.ar    1  UNL1       -0.2111
     24 C         144.5812  143.6637  162.4548 C.ar    1  UNL1        0.1147
     25 C         144.4114  142.5353  163.4284 C.ar    1  UNL1        0.0946
     26 CL        145.6168  141.8402  163.9884 Cl      1  UNL1       -0.0790
     27 C         143.0361  142.1020  163.8419 C.ar    1  UNL1        0.0992
     28 N         141.8307  142.7972  163.2819 N.ar    1  UNL1       -0.2126
     29 C         142.8663  140.9736  164.8156 C.ar    1  UNL1        0.0572
     30 C         142.6541  139.5308  164.4647 C.ar    1  UNL1        0.1235
     31 N         142.5356  138.7555  165.7433 N.ar    1  UNL1       -0.1634
     32 N         142.6746  139.7191  166.8844 N.ar    1  UNL1       -0.2281
     33 C         142.6414  139.5254  168.3714 C.ar    1  UNL1        0.1004
     34 C         142.8127  140.7026  169.2851 C.ar    1  UNL1        0.0207
     35 C         143.0171  142.0735  168.7117 C.ar    1  UNL1        0.0031
     36 C         143.0502  142.2673  167.2246 C.ar    1  UNL1        0.0193
     37 C         142.8790  141.0901  166.3110 C.ar    1  UNL1        0.0858
     38 O         138.8351  142.3494  161.7316 O.3     1  UNL1       -0.4701
     39 C         137.7316  142.9153  162.5754 C.3     1  UNL1        0.2525
@<TRIPOS>BOND
     1    18    19    2
     2    19    14    1
     3    14    15    2
     4    14    16   am
     5    16     1    1
     6     1     2   ar
     7     2     3   ar
     8     3    20    1
     9    20    22    1
    10    22    23   ar
    11    23    24   ar
    12    24    25   ar
    13    25    26    1
    14    25    27   ar
    15    27    29    1
    16    29    30   ar
    17    30    31   ar
    18    31    32   ar
    19    32    33   ar
    20    33    34   ar
    21    34    35   ar
    22    35    36   ar
    23    36    37   ar
    24    27    28   ar
    25     3     4   ar
    26     4    38    1
    27    38    39    1
    28     4     5   ar
    29     5     6   ar
    30     6     7    1
    31     7     8    1
    32     8     9    1
    33     9    10    1
    34    10    11    1
    35    10    12    1
    36    12    13    1
    37     6     1   ar
    38    13     7    1
    39    28    22   ar
    40    37    29   ar
    41    37    32   ar
    42    16    17    1
    43    20    21    1
@<TRIPOS>MOLECULE
*****
 39 43 0 0 0
SMALL
GASTEIGER

@<TRIPOS>ATOM
      1 C         143.0326  143.2500  159.5818 C.ar    1  UNL1        0.0655
      2 C         143.8788  142.9215  160.7760 C.ar    1  UNL1        0.0337
      3 C         143.5312  143.4887  162.1205 C.ar    1  UNL1        0.0862
      4 C         142.3374  144.3843  162.2707 C.ar    1  UNL1        0.1534
      5 C         141.4912  144.7128  161.0765 C.ar    1  UNL1        0.0539
      6 C         141.8388  144.1456  159.7321 C.ar    1  UNL1        0.0647
      7 N         140.9926  144.4741  158.5379 N.pl3   1  UNL1       -0.3036
      8 C         139.9444  143.5072  158.0728 C.3     1  UNL1        0.1082
      9 C         139.0981  143.8357  156.8786 C.3     1  UNL1        0.0938
     10 N         139.3000  145.1310  156.1497 N.3     1  UNL1       -0.2686
     11 C         138.4538  145.4595  154.9555 C.3     1  UNL1        0.0897
     12 C         140.3482  146.0979  156.6149 C.3     1  UNL1        0.0938
     13 C         141.1945  145.7694  157.8090 C.3     1  UNL1        0.1082
     14 C         144.8175  142.5425  157.8315 C.2     1  UNL1        0.2497
     15 O         145.5118  142.7101  158.1855 O.2     1  UNL1       -0.2698
     16 N         143.3803  142.6828  158.2374 N.am    1  UNL1       -0.2794
     17 H         142.6652  142.4026  157.6214 H       1  UNL1        0.1552
     18 C         146.6017  141.8566  156.0718 C.2     1  UNL1        0.0048
     19 C         145.1652  141.9753  156.4871 C.2     1  UNL1        0.0580
     20 N         144.3775  143.1602  163.3146 N.pl3   1  UNL1       -0.2801
     21 H         145.0631  143.7963  163.6220 H       1  UNL1        0.1552
     22 C         144.1791  141.8626  164.0404 C.ar    1  UNL1        0.2208
     23 N         145.1478  140.7351  163.8394 N.ar    1  UNL1       -0.2111
     24 C         144.9493  139.4375  164.5652 C.ar    1  UNL1        0.1147
     25 C         143.7822  139.2673  165.4920 C.ar    1  UNL1        0.0946
     26 CL        143.5838  137.9697  166.2178 Cl      1  UNL1       -0.0790
     27 C         142.8135  140.3949  165.6930 C.ar    1  UNL1        0.0992
     28 N         143.0119  141.6924  164.9672 N.ar    1  UNL1       -0.2126
     29 C         141.6464  140.2247  166.6198 C.ar    1  UNL1        0.0572
     30 C         140.2585  139.8159  166.2239 C.ar    1  UNL1        0.1235
     31 N         139.4167  139.7720  167.4646 N.ar    1  UNL1       -0.1634
     32 N         140.2842  140.1538  168.6272 N.ar    1  UNL1       -0.2281
     33 C         139.9974  140.2828  170.0939 C.ar    1  UNL1        0.1004
     34 C         141.0886  140.6916  171.0383 C.ar    1  UNL1        0.0207
     35 C         142.4667  140.9714  170.5161 C.ar    1  UNL1        0.0031
     36 C         142.7535  140.8424  169.0495 C.ar    1  UNL1        0.0193
     37 C         141.6623  140.4336  168.1051 C.ar    1  UNL1        0.0858
     38 O         141.9898  144.9515  163.6151 O.3     1  UNL1       -0.4701
     39 C         140.7296  144.5231  164.3068 C.3     1  UNL1        0.2525
@<TRIPOS>BOND
     1    18    19    2
     2    19    14    1
     3    14    15    2
     4    14    16   am
     5    16     1    1
     6     1     2   ar
     7     2     3   ar
     8     3    20    1
     9    20    22    1
    10    22    23   ar
    11    23    24   ar
    12    24    25   ar
    13    25    26    1
    14    25    27   ar
    15    27    29    1
    16    29    30   ar
    17    30    31   ar
    18    31    32   ar
    19    32    33   ar
    20    33    34   ar
    21    34    35   ar
    22    35    36   ar
    23    36    37   ar
    24    27    28   ar
    25     3     4   ar
    26     4    38    1
    27    38    39    1
    28     4     5   ar
    29     5     6   ar
    30     6     7    1
    31     7     8    1
    32     8     9    1
    33     9    10    1
    34    10    11    1
    35    10    12    1
    36    12    13    1
    37     6     1   ar
    38    13     7    1
    39    28    22   ar
    40    37    29   ar
    41    37    32   ar
    42    16    17    1
    43    20    21    1
@<TRIPOS>MOLECULE
*****
 39 43 0 0 0
SMALL
GASTEIGER

@<TRIPOS>ATOM
      1 C         141.7046  139.0435  165.0678 C.ar    1  UNL1        0.0655
      2 C         142.2379  138.4299  163.8072 C.ar    1  UNL1        0.0337
      3 C         143.5121  138.9427  163.2041 C.ar    1  UNL1        0.0862
      4 C         144.2529  140.0690  163.8616 C.ar    1  UNL1        0.1534
      5 C         143.7196  140.6827  165.1223 C.ar    1  UNL1        0.0539
      6 C         142.4455  140.1699  165.7253 C.ar    1  UNL1        0.0647
      7 N         141.9123  140.7836  166.9859 N.pl3   1  UNL1       -0.3036
      8 C         142.0863  140.0753  168.2966 C.3     1  UNL1        0.1082
      9 C         141.5531  140.6890  169.5573 C.3     1  UNL1        0.0938
     10 N         140.8459  142.0108  169.5071 N.3     1  UNL1       -0.2686
     11 C         140.3126  142.6245  170.7677 C.3     1  UNL1        0.0897
     12 C         140.6718  142.7190  168.1963 C.3     1  UNL1        0.0938
     13 C         141.2050  142.1054  166.9357 C.3     1  UNL1        0.1082
     14 C         139.1674  139.3304  165.5474 C.2     1  UNL1        0.2497
     15 O         138.9847  140.0283  165.2085 O.2     1  UNL1       -0.2698
     16 N         140.4305  138.5307  165.6708 N.am    1  UNL1       -0.2794
     17 H         140.4232  137.6694  166.1475 H       1  UNL1        0.1552
     18 C         137.7947  137.3876  166.5921 C.2     1  UNL1        0.0048
     19 C         137.8932  138.8176  166.1504 C.2     1  UNL1        0.0580
     20 N         144.0453  138.3290  161.9435 N.pl3   1  UNL1       -0.2801
     21 H         144.6593  137.5609  161.9914 H       1  UNL1        0.1552
     22 C         143.6430  138.8855  160.6099 C.ar    1  UNL1        0.2208
     23 N         144.0505  140.2765  160.2239 N.ar    1  UNL1       -0.2111
     24 C         143.6482  140.8330  158.8903 C.ar    1  UNL1        0.1147
     25 C         142.8385  139.9985  157.9427 C.ar    1  UNL1        0.0946
     26 CL        142.4362  140.5550  156.6092 Cl      1  UNL1       -0.0790
     27 C         142.4309  138.6074  158.3288 C.ar    1  UNL1        0.0992
     28 N         142.8332  138.0510  159.6623 N.ar    1  UNL1       -0.2126
     29 C         141.6212  137.7729  157.3812 C.ar    1  UNL1        0.0572
     30 C         140.1519  137.9160  157.1152 C.ar    1  UNL1        0.1235
     31 N         139.7612  136.8803  156.1029 N.ar    1  UNL1       -0.1634
     32 N         140.9890  136.0972  155.7432 N.ar    1  UNL1       -0.2281
     33 C         141.2088  134.9531  154.7985 C.ar    1  UNL1        0.1004
     34 C         142.5781  134.3607  154.6437 C.ar    1  UNL1        0.0207
     35 C         143.7277  134.9124  155.4338 C.ar    1  UNL1        0.0031
     36 C         143.5079  136.0565  156.3786 C.ar    1  UNL1        0.0193
     37 C         142.1386  136.6489  156.5333 C.ar    1  UNL1        0.0858
     38 O         145.5270  140.5818  163.2586 O.3     1  UNL1       -0.4701
     39 C         145.6639  142.0365  162.9191 C.3     1  UNL1        0.2525
@<TRIPOS>BOND
     1    18    19    2
     2    19    14    1
     3    14    15    2
     4    14    16   am
     5    16     1    1
     6     1     2   ar
     7     2     3   ar
     8     3    20    1
     9    20    22    1
    10    22    23   ar
    11    23    24   ar
    12    24    25   ar
    13    25    26    1
    14    25    27   ar
    15    27    29    1
    16    29    30   ar
    17    30    31   ar
    18    31    32   ar
    19    32    33   ar
    20    33    34   ar
    21    34    35   ar
    22    35    36   ar
    23    36    37   ar
    24    27    28   ar
    25     3     4   ar
    26     4    38    1
    27    38    39    1
    28     4     5   ar
    29     5     6   ar
    30     6     7    1
    31     7     8    1
    32     8     9    1
    33     9    10    1
    34    10    11    1
    35    10    12    1
    36    12    13    1
    37     6     1   ar
    38    13     7    1
    39    28    22   ar
    40    37    29   ar
    41    37    32   ar
    42    16    17    1
    43    20    21    1
@<TRIPOS>MOLECULE
*****
 39 43 0 0 0
SMALL
GASTEIGER

@<TRIPOS>ATOM
      1 C         142.6409  139.0818  158.5275 C.ar    1  UNL1        0.0655
      2 C         143.6113  139.1078  159.6710 C.ar    1  UNL1        0.0337
      3 C         143.1725  138.6704  161.0372 C.ar    1  UNL1        0.0862
      4 C         141.7634  138.2069  161.2596 C.ar    1  UNL1        0.1534
      5 C         140.7930  138.1809  160.1160 C.ar    1  UNL1        0.0539
      6 C         141.2318  138.6183  158.7499 C.ar    1  UNL1        0.0647
      7 N         140.2614  138.5923  157.6064 N.pl3   1  UNL1       -0.3036
      8 C         139.4138  139.7949  157.3147 C.3     1  UNL1        0.1082
      9 C         138.4433  139.7690  156.1711 C.3     1  UNL1        0.0938
     10 N         138.3206  138.5404  155.3195 N.3     1  UNL1       -0.2686
     11 C         137.3501  138.5143  154.1759 C.3     1  UNL1        0.0897
     12 C         139.1682  137.3377  155.6112 C.3     1  UNL1        0.0938
     13 C         140.1386  137.3637  156.7547 C.3     1  UNL1        0.1082
     14 C         143.6921  138.5276  156.2171 C.2     1  UNL1        0.2497
     15 O         143.8597  137.7497  156.2630 O.2     1  UNL1       -0.2698
     16 N         143.0797  139.5192  157.1614 N.am    1  UNL1       -0.2794
     17 H         142.9658  140.4571  156.8846 H       1  UNL1        0.1552
     18 C         145.0910  140.1078  154.7017 C.2     1  UNL1        0.0048
     19 C         144.1310  138.9650  154.8510 C.2     1  UNL1        0.0580
     20 N         144.1429  138.6964  162.1806 N.pl3   1  UNL1       -0.2801
     21 H         144.7047  137.9098  162.3675 H       1  UNL1        0.1552
     22 C         144.2574  139.9208  163.0395 C.ar    1  UNL1        0.2208
     23 N         145.4232  140.8493  162.8702 N.ar    1  UNL1       -0.2111
     24 C         145.5377  142.0738  163.7290 C.ar    1  UNL1        0.1147
     25 C         144.4863  142.3697  164.7572 C.ar    1  UNL1        0.0946
     26 CL        144.6008  143.5942  165.6160 Cl      1  UNL1       -0.0790
     27 C         143.3204  141.4412  164.9265 C.ar    1  UNL1        0.0992
     28 N         143.2060  140.2168  164.0676 N.ar    1  UNL1       -0.2126
     29 C         142.2690  141.7371  165.9546 C.ar    1  UNL1        0.0572
     30 C         141.2363  142.8218  165.8726 C.ar    1  UNL1        0.1235
     31 N         140.3949  142.7554  167.1126 N.ar    1  UNL1       -0.1634
     32 N         140.9076  141.6296  167.9609 N.ar    1  UNL1       -0.2281
     33 C         140.4693  141.0962  169.2926 C.ar    1  UNL1        0.1004
     34 C         141.1894  139.9335  169.9086 C.ar    1  UNL1        0.0207
     35 C         142.3478  139.3042  169.1929 C.ar    1  UNL1        0.0031
     36 C         142.7860  139.8375  167.8612 C.ar    1  UNL1        0.0193
     37 C         142.0659  141.0002  167.2452 C.ar    1  UNL1        0.0858
     38 O         141.3246  137.7694  162.6257 O.3     1  UNL1       -0.4701
     39 C         139.8677  137.7743  162.9828 C.3     1  UNL1        0.2525
@<TRIPOS>BOND
     1    18    19    2
     2    19    14    1
     3    14    15    2
     4    14    16   am
     5    16     1    1
     6     1     2   ar
     7     2     3   ar
     8     3    20    1
     9    20    22    1
    10    22    23   ar
    11    23    24   ar
    12    24    25   ar
    13    25    26    1
    14    25    27   ar
    15    27    29    1
    16    29    30   ar
    17    30    31   ar
    18    31    32   ar
    19    32    33   ar
    20    33    34   ar
    21    34    35   ar
    22    35    36   ar
    23    36    37   ar
    24    27    28   ar
    25     3     4   ar
    26     4    38    1
    27    38    39    1
    28     4     5   ar
    29     5     6   ar
    30     6     7    1
    31     7     8    1
    32     8     9    1
    33     9    10    1
    34    10    11    1
    35    10    12    1
    36    12    13    1
    37     6     1   ar
    38    13     7    1
    39    28    22   ar
    40    37    29   ar
    41    37    32   ar
    42    16    17    1
    43    20    21    1
@<TRIPOS>MOLECULE
*****
 39 43 0 0 0
SMALL
GASTEIGER

@<TRIPOS>ATOM
      1 C         138.5895  140.0991  158.3866 C.ar    1  UNL1        0.0655
      2 C         137.9252  140.3751  159.7029 C.ar    1  UNL1        0.0337
      3 C         138.2582  139.5368  160.9015 C.ar    1  UNL1        0.0862
      4 C         139.2555  138.4226  160.7837 C.ar    1  UNL1        0.1534
      5 C         139.9198  138.1466  159.4674 C.ar    1  UNL1        0.0539
      6 C         139.5868  138.9849  158.2688 C.ar    1  UNL1        0.0647
      7 N         140.2511  138.7088  156.9526 N.pl3   1  UNL1       -0.3036
      8 C         141.5973  139.2990  156.6537 C.3     1  UNL1        0.1082
      9 C         142.2617  139.0230  155.3374 C.3     1  UNL1        0.0938
     10 N         141.5799  138.1569  154.3202 N.3     1  UNL1       -0.2686
     11 C         142.2442  137.8808  153.0039 C.3     1  UNL1        0.0897
     12 C         140.2336  137.5667  154.6192 C.3     1  UNL1        0.0938
     13 C         139.5692  137.8427  155.9354 C.3     1  UNL1        0.1082
     14 C         136.8586  140.9461  156.6441 C.2     1  UNL1        0.2497
     15 O         136.1811  140.5813  156.8521 O.2     1  UNL1       -0.2698
     16 N         138.2564  140.9374  157.1881 N.am    1  UNL1       -0.2794
     17 H         138.9553  141.4818  156.7586 H       1  UNL1        0.1552
     18 C         136.5855  143.2804  155.5364 C.2     1  UNL1        0.0048
     19 C         136.5255  141.7843  155.4455 C.2     1  UNL1        0.0580
     20 N         137.5939  139.8129  162.2177 N.pl3   1  UNL1       -0.2801
     21 H         136.8934  139.2073  162.5520 H       1  UNL1        0.1552
     22 C         137.9968  141.0115  163.0244 C.ar    1  UNL1        0.2208
     23 N         137.2112  142.2849  162.9193 N.ar    1  UNL1       -0.2111
     24 C         137.6141  143.4836  163.7261 C.ar    1  UNL1        0.1147
     25 C         138.8027  143.4087  164.6380 C.ar    1  UNL1        0.0946
     26 CL        139.2057  144.6074  165.4448 Cl      1  UNL1       -0.0790
     27 C         139.5884  142.1352  164.7432 C.ar    1  UNL1        0.0992
     28 N         139.1854  140.9367  163.9364 N.ar    1  UNL1       -0.2126
     29 C         140.7770  142.0604  165.6551 C.ar    1  UNL1        0.0572
     30 C         142.1217  142.6756  165.4032 C.ar    1  UNL1        0.1235
     31 N         143.0053  142.3526  166.5715 N.ar    1  UNL1       -0.1634
     32 N         142.2068  141.5379  167.5454 N.ar    1  UNL1       -0.2281
     33 C         142.5557  140.9371  168.8748 C.ar    1  UNL1        0.1004
     34 C         141.5275  140.1557  169.6378 C.ar    1  UNL1        0.0207
     35 C         140.1504  139.9751  169.0714 C.ar    1  UNL1        0.0031
     36 C         139.8014  140.5759  167.7420 C.ar    1  UNL1        0.0193
     37 C         140.8296  141.3572  166.9791 C.ar    1  UNL1        0.0858
     38 O         139.5885  137.5844  161.9822 O.3     1  UNL1       -0.4701
     39 C         140.9731  137.6160  162.5583 C.3     1  UNL1        0.2525
@<TRIPOS>BOND
     1    18    19    2
     2    19    14    1
     3    14    15    2
     4    14    16   am
     5    16     1    1
     6     1     2   ar
     7     2     3   ar
     8     3    20    1
     9    20    22    1
    10    22    23   ar
    11    23    24   ar
    12    24    25   ar
    13    25    26    1
    14    25    27   ar
    15    27    29    1
    16    29    30   ar
    17    30    31   ar
    18    31    32   ar
    19    32    33   ar
    20    33    34   ar
    21    34    35   ar
    22    35    36   ar
    23    36    37   ar
    24    27    28   ar
    25     3     4   ar
    26     4    38    1
    27    38    39    1
    28     4     5   ar
    29     5     6   ar
    30     6     7    1
    31     7     8    1
    32     8     9    1
    33     9    10    1
    34    10    11    1
    35    10    12    1
    36    12    13    1
    37     6     1   ar
    38    13     7    1
    39    28    22   ar
    40    37    29   ar
    41    37    32   ar
    42    16    17    1
    43    20    21    1
@<TRIPOS>MOLECULE
*****
 39 43 0 0 0
SMALL
GASTEIGER

@<TRIPOS>ATOM
      1 C         141.3047  139.9761  157.0570 C.ar    1  UNL1        0.0655
      2 C         140.6845  141.2368  157.5823 C.ar    1  UNL1        0.0337
      3 C         139.4688  141.1661  158.4583 C.ar    1  UNL1        0.0862
      4 C         138.8735  139.8347  158.8089 C.ar    1  UNL1        0.1534
      5 C         139.4937  138.5740  158.2835 C.ar    1  UNL1        0.0539
      6 C         140.7093  138.6447  157.4075 C.ar    1  UNL1        0.0647
      7 N         141.3295  137.3841  156.8822 N.pl3   1  UNL1       -0.3036
      8 C         140.7254  136.6877  155.6989 C.3     1  UNL1        0.1082
      9 C         141.3455  135.4269  155.1734 C.3     1  UNL1        0.0938
     10 N         142.5697  134.8626  155.8313 N.3     1  UNL1       -0.2686
     11 C         143.1899  133.6019  155.3060 C.3     1  UNL1        0.0897
     12 C         143.1738  135.5590  157.0146 C.3     1  UNL1        0.0938
     13 C         142.5537  136.8197  157.5401 C.3     1  UNL1        0.1082
     14 C         143.8882  140.0600  156.7962 C.2     1  UNL1        0.2497
     15 O         144.1586  140.0365  157.5458 O.2     1  UNL1       -0.2698
     16 N         142.5203  140.0469  156.1810 N.am    1  UNL1       -0.2794
     17 H         142.4204  140.0847  155.2023 H       1  UNL1        0.1552
     18 C         146.0583  141.2803  156.0532 C.2     1  UNL1        0.0048
     19 C         145.1039  140.1307  155.9204 C.2     1  UNL1        0.0580
     20 N         138.8487  142.4268  158.9837 N.pl3   1  UNL1       -0.2801
     21 H         138.3204  143.0023  158.3845 H       1  UNL1        0.1552
     22 C         139.0334  142.8108  160.4219 C.ar    1  UNL1        0.2208
     23 N         137.8369  143.0193  161.3021 N.ar    1  UNL1       -0.2111
     24 C         138.0216  143.4032  162.7403 C.ar    1  UNL1        0.1147
     25 C         139.4029  143.5788  163.2982 C.ar    1  UNL1        0.0946
     26 CL        139.5876  143.9628  164.7364 Cl      1  UNL1       -0.0790
     27 C         140.5995  143.3703  162.4179 C.ar    1  UNL1        0.0992
     28 N         140.4147  142.9863  160.9798 N.ar    1  UNL1       -0.2126
     29 C         141.9808  143.5458  162.9759 C.ar    1  UNL1        0.0572
     30 C         142.6236  144.8500  163.3446 C.ar    1  UNL1        0.1235
     31 N         144.0018  144.5581  163.8596 N.ar    1  UNL1       -0.1634
     32 N         144.2108  143.0736  163.8093 N.ar    1  UNL1       -0.2281
     33 C         145.3771  142.2107  164.1902 C.ar    1  UNL1        0.1004
     34 C         145.2943  140.7222  164.0250 C.ar    1  UNL1        0.0207
     35 C         144.0452  140.0966  163.4788 C.ar    1  UNL1        0.0031
     36 C         142.8789  140.9594  163.0978 C.ar    1  UNL1        0.0193
     37 C         142.9617  142.4480  163.2631 C.ar    1  UNL1        0.0858
     38 O         137.6578  139.7640  159.6848 O.3     1  UNL1       -0.4701
     39 C         137.7943  139.3750  161.1271 C.3     1  UNL1        0.2525
@<TRIPOS>BOND
     1    18    19    2
     2    19    14    1
     3    14    15    2
     4    14    16   am
     5    16     1    1
     6     1     2   ar
     7     2     3   ar
     8     3    20    1
     9    20    22    1
    10    22    23   ar
    11    23    24   ar
    12    24    25   ar
    13    25    26    1
    14    25    27   ar
    15    27    29    1
    16    29    30   ar
    17    30    31   ar
    18    31    32   ar
    19    32    33   ar
    20    33    34   ar
    21    34    35   ar
    22    35    36   ar
    23    36    37   ar
    24    27    28   ar
    25     3     4   ar
    26     4    38    1
    27    38    39    1
    28     4     5   ar
    29     5     6   ar
    30     6     7    1
    31     7     8    1
    32     8     9    1
    33     9    10    1
    34    10    11    1
    35    10    12    1
    36    12    13    1
    37     6     1   ar
    38    13     7    1
    39    28    22   ar
    40    37    29   ar
    41    37    32   ar
    42    16    17    1
    43    20    21    1
