@<TRIPOS>MOLECULE
*****
 26 27 0 0 0
SMALL
GASTEIGER

@<TRIPOS>ATOM
      1 C         137.6748  141.4616  163.0855 C.ar    1  UNL1        0.1328
      2 N         137.5715  141.4099  161.5900 N.ar    1  UNL1       -0.1993
      3 C         137.8640  140.1316  160.8618 C.ar    1  UNL1        0.2148
      4 N         137.7607  140.0799  159.3662 N.pl3   1  UNL1       -0.3274
      5 N         138.2598  138.9050  161.6290 N.ar    1  UNL1       -0.2139
      6 C         138.3631  138.9567  163.1246 C.ar    1  UNL1        0.0870
      7 C         138.7589  137.7301  163.8919 C.ar    1  UNL1        0.0224
      8 C         138.8622  137.7818  165.3874 C.ar    1  UNL1        0.0384
      9 C         138.5697  139.0601  166.1157 C.ar    1  UNL1        0.1389
     10 C         138.1739  140.2867  165.3484 C.ar    1  UNL1        0.0412
     11 C         138.0706  140.2350  163.8529 C.ar    1  UNL1        0.0522
     12 H         137.5009  140.8850  158.8626 H       1  UNL1        0.1452
     13 H         137.9527  139.2409  158.8882 H       1  UNL1        0.1452
     14 N         137.3823  142.7400  163.8138 N.pl3   1  UNL1       -0.3195
     15 H         136.4998  142.8801  164.2272 H       1  UNL1        0.1481
     16 C         138.4342  143.8047  163.9121 C.3     1  UNL1        0.0729
     17 C         139.0822  144.0991  165.2325 C.3     1  UNL1        0.0196
     18 C         140.2421  143.2706  165.7000 C.3     1  UNL1        0.0017
     19 C         141.7545  141.2268  165.1659 C.3     1  UNL1        0.0000
     20 C         141.0307  142.4605  164.7143 C.3     1  UNL1        0.0001
     21 C         138.8382  144.5751  162.6901 C.3     1  UNL1        0.0512
     22 C         140.1029  145.3817  162.6960 C.3     1  UNL1        0.1389
     23 O         140.1053  146.7766  162.1447 O.3     1  UNL1       -0.3819
     24 H         139.9359  146.7473  161.1900 H       1  UNL1        0.2104
     25 O         138.6730  139.1118  167.6113 O.3     1  UNL1       -0.4714
     26 C         139.6030  140.0901  168.2654 C.3     1  UNL1        0.2525
@<TRIPOS>BOND
     1    19    20    1
     2    20    18    1
     3    18    17    1
     4    16    17    1
     5    16    21    1
     6    21    22    1
     7    22    23    1
     8    16    14    1
     9    14     1    1
    10     1     2   ar
    11     2     3   ar
    12     3     4    1
    13     3     5   ar
    14     5     6   ar
    15     6     7   ar
    16     7     8   ar
    17     8     9   ar
    18     9    25    1
    19    25    26    1
    20     9    10   ar
    21    10    11   ar
    22    11     1   ar
    23    11     6   ar
    24    23    24    1
    25    14    15    1
    26     4    12    1
    27     4    13    1
@<TRIPOS>MOLECULE
*****
 26 27 0 0 0
SMALL
GASTEIGER

@<TRIPOS>ATOM
      1 C         142.6153  141.7106  167.7622 C.ar    1  UNL1        0.1328
      2 N         143.3753  142.5781  168.7213 N.ar    1  UNL1       -0.1993
      3 C         142.8149  142.8596  170.0838 C.ar    1  UNL1        0.2148
      4 N         143.5749  143.7272  171.0429 N.pl3   1  UNL1       -0.3274
      5 N         141.4944  142.2736  170.4874 N.ar    1  UNL1       -0.2139
      6 C         140.7343  141.4060  169.5283 C.ar    1  UNL1        0.0870
      7 C         139.4139  140.8200  169.9319 C.ar    1  UNL1        0.0224
      8 C         138.6539  139.9525  168.9728 C.ar    1  UNL1        0.0384
      9 C         139.2143  139.6710  167.6102 C.ar    1  UNL1        0.1389
     10 C         140.5348  140.2570  167.2067 C.ar    1  UNL1        0.0412
     11 C         141.2948  141.1245  168.1657 C.ar    1  UNL1        0.0522
     12 H         144.4416  144.1118  170.7780 H       1  UNL1        0.1452
     13 H         143.2071  143.9119  171.9372 H       1  UNL1        0.1452
     14 N         143.1758  141.4291  166.3996 N.pl3   1  UNL1       -0.3195
     15 H         143.4858  140.5227  166.1725 H       1  UNL1        0.1481
     16 C         143.2640  142.5286  165.3831 C.3     1  UNL1        0.0729
     17 C         142.0378  143.3106  165.0159 C.3     1  UNL1        0.0196
     18 C         140.8679  142.6175  164.3827 C.3     1  UNL1        0.0017
     19 C         139.2141  144.4541  165.1838 C.3     1  UNL1        0.0000
     20 C         139.5553  143.3314  164.2495 C.3     1  UNL1        0.0001
     21 C         144.5784  142.8461  164.7337 C.3     1  UNL1        0.0512
     22 C         144.9873  142.1318  163.4798 C.3     1  UNL1        0.1389
     23 O         146.4340  141.8244  163.2295 O.3     1  UNL1       -0.3819
     24 H         146.9248  142.6528  163.1120 H       1  UNL1        0.2104
     25 O         138.4543  138.8035  166.6512 O.3     1  UNL1       -0.4714
     26 C         137.3164  137.9593  167.1436 C.3     1  UNL1        0.2525
@<TRIPOS>BOND
     1    19    20    1
     2    20    18    1
     3    18    17    1
     4    16    17    1
     5    16    21    1
     6    21    22    1
     7    22    23    1
     8    16    14    1
     9    14     1    1
    10     1     2   ar
    11     2     3   ar
    12     3     4    1
    13     3     5   ar
    14     5     6   ar
    15     6     7   ar
    16     7     8   ar
    17     8     9   ar
    18     9    25    1
    19    25    26    1
    20     9    10   ar
    21    10    11   ar
    22    11     1   ar
    23    11     6   ar
    24    23    24    1
    25    14    15    1
    26     4    12    1
    27     4    13    1
@<TRIPOS>MOLECULE
*****
 26 27 0 0 0
SMALL
GASTEIGER

@<TRIPOS>ATOM
      1 C         139.2727  139.9628  165.1364 C.ar    1  UNL1        0.1328
      2 N         138.1803  139.0817  165.6658 N.ar    1  UNL1       -0.1993
      3 C         138.0698  138.8275  167.1400 C.ar    1  UNL1        0.2148
      4 N         136.9773  137.9464  167.6693 N.pl3   1  UNL1       -0.3274
      5 N         139.0518  139.4545  168.0848 N.ar    1  UNL1       -0.2139
      6 C         140.1443  140.3356  167.5554 C.ar    1  UNL1        0.0870
      7 C         141.1262  140.9625  168.5002 C.ar    1  UNL1        0.0224
      8 C         142.2186  141.8436  167.9709 C.ar    1  UNL1        0.0384
      9 C         142.3291  142.0978  166.4967 C.ar    1  UNL1        0.1389
     10 C         141.3471  141.4708  165.5519 C.ar    1  UNL1        0.0412
     11 C         140.2547  140.5898  166.0813 C.ar    1  UNL1        0.0522
     12 H         136.3328  137.5349  167.0492 H       1  UNL1        0.1452
     13 H         136.9048  137.7796  168.6369 H       1  UNL1        0.1452
     14 N         139.3832  140.2169  163.6623 N.pl3   1  UNL1       -0.3195
     15 H         140.2633  140.1870  163.2222 H       1  UNL1        0.1481
     16 C         138.1527  140.5167  162.8586 C.3     1  UNL1        0.0729
     17 C         137.3458  141.7465  163.1529 C.3     1  UNL1        0.0196
     18 C         137.9966  143.0974  163.1150 C.3     1  UNL1        0.0017
     19 C         138.9627  144.2839  165.2147 C.3     1  UNL1        0.0000
     20 C         137.8262  144.0446  164.2656 C.3     1  UNL1        0.0001
     21 C         137.7290  139.5867  161.7605 C.3     1  UNL1        0.0512
     22 C         138.3584  138.2304  161.6418 C.3     1  UNL1        0.1389
     23 O         138.5187  137.3689  162.8592 O.3     1  UNL1       -0.3819
     24 H         139.1460  137.7861  163.4702 H       1  UNL1        0.2104
     25 O         143.4216  142.9789  165.9673 O.3     1  UNL1       -0.4714
     26 C         143.9555  142.7618  164.5825 C.3     1  UNL1        0.2525
@<TRIPOS>BOND
     1    19    20    1
     2    20    18    1
     3    18    17    1
     4    16    17    1
     5    16    21    1
     6    21    22    1
     7    22    23    1
     8    16    14    1
     9    14     1    1
    10     1     2   ar
    11     2     3   ar
    12     3     4    1
    13     3     5   ar
    14     5     6   ar
    15     6     7   ar
    16     7     8   ar
    17     8     9   ar
    18     9    25    1
    19    25    26    1
    20     9    10   ar
    21    10    11   ar
    22    11     1   ar
    23    11     6   ar
    24    23    24    1
    25    14    15    1
    26     4    12    1
    27     4    13    1
@<TRIPOS>MOLECULE
*****
 26 27 0 0 0
SMALL
GASTEIGER

@<TRIPOS>ATOM
      1 C         139.7330  140.5223  167.7498 C.ar    1  UNL1        0.1328
      2 N         138.8958  139.3284  168.1013 N.ar    1  UNL1       -0.1993
      3 C         137.9358  138.7635  167.0966 C.ar    1  UNL1        0.2148
      4 N         137.0986  137.5695  167.4482 N.pl3   1  UNL1       -0.3274
      5 N         137.8129  139.3927  165.7405 N.ar    1  UNL1       -0.2139
      6 C         138.6501  140.5867  165.3890 C.ar    1  UNL1        0.0870
      7 C         138.5272  141.2158  164.0329 C.ar    1  UNL1        0.0224
      8 C         139.3644  142.4098  163.6815 C.ar    1  UNL1        0.0384
      9 C         140.3245  142.9746  164.6861 C.ar    1  UNL1        0.1389
     10 C         140.4473  142.3455  166.0422 C.ar    1  UNL1        0.0412
     11 C         139.6102  141.1515  166.3937 C.ar    1  UNL1        0.0522
     12 H         137.1792  137.1566  168.3382 H       1  UNL1        0.1452
     13 H         136.4685  137.1988  166.7888 H       1  UNL1        0.1452
     14 N         140.6930  141.0871  168.7545 N.pl3   1  UNL1       -0.3195
     15 H         140.4078  141.8152  169.3526 H       1  UNL1        0.1481
     16 C         142.0876  140.5427  168.8477 C.3     1  UNL1        0.0729
     17 C         142.4776  139.3377  168.0440 C.3     1  UNL1        0.0196
     18 C         143.0070  139.5049  166.6505 C.3     1  UNL1        0.0017
     19 C         141.4456  138.1460  165.0803 C.3     1  UNL1        0.0000
     20 C         142.8117  138.4153  165.6383 C.3     1  UNL1        0.0001
     21 C         143.0922  141.2032  169.7447 C.3     1  UNL1        0.0512
     22 C         143.0724  142.6922  169.9247 C.3     1  UNL1        0.1389
     23 O         141.8614  143.3616  170.5037 O.3     1  UNL1       -0.3819
     24 H         141.1141  143.2619  169.8934 H       1  UNL1        0.2104
     25 O         141.1617  144.1686  164.3346 O.3     1  UNL1       -0.4714
     26 C         142.6460  144.0231  164.1749 C.3     1  UNL1        0.2525
@<TRIPOS>BOND
     1    19    20    1
     2    20    18    1
     3    18    17    1
     4    16    17    1
     5    16    21    1
     6    21    22    1
     7    22    23    1
     8    16    14    1
     9    14     1    1
    10     1     2   ar
    11     2     3   ar
    12     3     4    1
    13     3     5   ar
    14     5     6   ar
    15     6     7   ar
    16     7     8   ar
    17     8     9   ar
    18     9    25    1
    19    25    26    1
    20     9    10   ar
    21    10    11   ar
    22    11     1   ar
    23    11     6   ar
    24    23    24    1
    25    14    15    1
    26     4    12    1
    27     4    13    1
@<TRIPOS>MOLECULE
*****
 26 27 0 0 0
SMALL
GASTEIGER

@<TRIPOS>ATOM
      1 C         139.1994  143.2310  163.9078 C.ar    1  UNL1        0.1328
      2 N         138.4552  142.5695  162.7859 N.ar    1  UNL1       -0.1993
      3 C         138.0050  141.1451  162.9217 C.ar    1  UNL1        0.2148
      4 N         137.2608  140.4836  161.7998 N.pl3   1  UNL1       -0.3274
      5 N         138.2989  140.3823  164.1793 N.ar    1  UNL1       -0.2139
      6 C         139.0431  141.0438  165.3012 C.ar    1  UNL1        0.0870
      7 C         139.3371  140.2810  166.5588 C.ar    1  UNL1        0.0224
      8 C         140.0812  140.9425  167.6807 C.ar    1  UNL1        0.0384
      9 C         140.5315  142.3669  167.5449 C.ar    1  UNL1        0.1389
     10 C         140.2375  143.1297  166.2873 C.ar    1  UNL1        0.0412
     11 C         139.4934  142.4682  165.1655 C.ar    1  UNL1        0.0522
     12 H         137.0679  140.9843  160.9744 H       1  UNL1        0.1452
     13 H         136.9653  139.5487  161.8889 H       1  UNL1        0.1452
     14 N         139.6496  144.6554  163.7720 N.pl3   1  UNL1       -0.3195
     15 H         139.0903  145.3843  164.1258 H       1  UNL1        0.1481
     16 C         140.9519  144.9693  163.0972 C.3     1  UNL1        0.0729
     17 C         142.1370  145.3920  163.9137 C.3     1  UNL1        0.0196
     18 C         143.4910  144.8143  163.6252 C.3     1  UNL1        0.0017
     19 C         143.6762  142.6137  164.9938 C.3     1  UNL1        0.0000
     20 C         144.1884  143.9838  164.6616 C.3     1  UNL1        0.0001
     21 C         141.0691  144.8605  161.6056 C.3     1  UNL1        0.0512
     22 C         140.1645  145.6666  160.7215 C.3     1  UNL1        0.1389
     23 O         139.1133  146.5480  161.3282 O.3     1  UNL1       -0.3819
     24 H         138.4527  145.9996  161.7796 H       1  UNL1        0.2104
     25 O         141.2756  143.0284  168.6668 O.3     1  UNL1       -0.4714
     26 C         140.5210  143.6366  169.8116 C.3     1  UNL1        0.2525
@<TRIPOS>BOND
     1    19    20    1
     2    20    18    1
     3    18    17    1
     4    16    17    1
     5    16    21    1
     6    21    22    1
     7    22    23    1
     8    16    14    1
     9    14     1    1
    10     1     2   ar
    11     2     3   ar
    12     3     4    1
    13     3     5   ar
    14     5     6   ar
    15     6     7   ar
    16     7     8   ar
    17     8     9   ar
    18     9    25    1
    19    25    26    1
    20     9    10   ar
    21    10    11   ar
    22    11     1   ar
    23    11     6   ar
    24    23    24    1
    25    14    15    1
    26     4    12    1
    27     4    13    1
@<TRIPOS>MOLECULE
*****
 26 27 0 0 0
SMALL
GASTEIGER

@<TRIPOS>ATOM
      1 C         141.8653  138.4657  164.3528 C.ar    1  UNL1        0.1328
      2 N         140.9494  137.9884  163.2651 N.ar    1  UNL1       -0.1993
      3 C         139.4628  138.0902  163.4379 C.ar    1  UNL1        0.2148
      4 N         138.5469  137.6129  162.3500 N.pl3   1  UNL1       -0.3274
      5 N         138.8922  138.6692  164.6984 N.ar    1  UNL1       -0.2139
      6 C         139.8082  139.1465  165.7863 C.ar    1  UNL1        0.0870
      7 C         139.2376  139.7255  167.0469 C.ar    1  UNL1        0.0224
      8 C         140.1535  140.2027  168.1346 C.ar    1  UNL1        0.0384
      9 C         141.6400  140.1010  167.9618 C.ar    1  UNL1        0.1389
     10 C         142.2106  139.5220  166.7013 C.ar    1  UNL1        0.0412
     11 C         141.2947  139.0447  165.6135 C.ar    1  UNL1        0.0522
     12 H         138.9214  137.2329  161.5226 H       1  UNL1        0.1452
     13 H         137.5712  137.6797  162.4634 H       1  UNL1        0.1452
     14 N         143.3518  138.3639  164.1800 N.pl3   1  UNL1       -0.3195
     15 H         143.8355  137.5806  164.5290 H       1  UNL1        0.1481
     16 C         144.1015  139.4555  163.4755 C.3     1  UNL1        0.0729
     17 C         145.1311  140.2567  164.2157 C.3     1  UNL1        0.0196
     18 C         145.4473  141.6569  163.7801 C.3     1  UNL1        0.0017
     19 C         143.8001  142.6039  165.5520 C.3     1  UNL1        0.0000
     20 C         144.6882  142.8127  164.3614 C.3     1  UNL1        0.0001
     21 C         143.8215  139.7459  162.0307 C.3     1  UNL1        0.0512
     22 C         143.9198  138.6489  161.0125 C.3     1  UNL1        0.1389
     23 O         143.2375  137.3356  161.2567 O.3     1  UNL1       -0.3819
     24 H         143.6513  136.8921  162.0136 H       1  UNL1        0.2104
     25 O         142.5559  140.5782  169.0497 O.3     1  UNL1       -0.4714
     26 C         142.6371  139.8267  170.3452 C.3     1  UNL1        0.2525
@<TRIPOS>BOND
     1    19    20    1
     2    20    18    1
     3    18    17    1
     4    16    17    1
     5    16    21    1
     6    21    22    1
     7    22    23    1
     8    16    14    1
     9    14     1    1
    10     1     2   ar
    11     2     3   ar
    12     3     4    1
    13     3     5   ar
    14     5     6   ar
    15     6     7   ar
    16     7     8   ar
    17     8     9   ar
    18     9    25    1
    19    25    26    1
    20     9    10   ar
    21    10    11   ar
    22    11     1   ar
    23    11     6   ar
    24    23    24    1
    25    14    15    1
    26     4    12    1
    27     4    13    1
@<TRIPOS>MOLECULE
*****
 26 27 0 0 0
SMALL
GASTEIGER

@<TRIPOS>ATOM
      1 C         140.6353  141.6301  166.8677 C.ar    1  UNL1        0.1328
      2 N         140.5346  141.9506  168.3296 N.ar    1  UNL1       -0.1993
      3 C         139.7141  141.0791  169.2337 C.ar    1  UNL1        0.2148
      4 N         139.6134  141.3997  170.6956 N.pl3   1  UNL1       -0.3274
      5 N         138.9943  139.8872  168.6759 N.ar    1  UNL1       -0.2139
      6 C         139.0950  139.5667  167.2139 C.ar    1  UNL1        0.0870
      7 C         138.3752  138.3747  166.6562 C.ar    1  UNL1        0.0224
      8 C         138.4759  138.0542  165.1943 C.ar    1  UNL1        0.0384
      9 C         139.2964  138.9257  164.2902 C.ar    1  UNL1        0.1389
     10 C         140.0162  140.1176  164.8480 C.ar    1  UNL1        0.0412
     11 C         139.9155  140.4381  166.3099 C.ar    1  UNL1        0.0522
     12 H         140.0859  142.1820  171.0617 H       1  UNL1        0.1452
     13 H         139.0749  140.8277  171.2890 H       1  UNL1        0.1452
     14 N         141.4558  142.5015  165.9636 N.pl3   1  UNL1       -0.3195
     15 H         142.4369  142.4207  165.9594 H       1  UNL1        0.1481
     16 C         140.7814  143.4961  165.0659 C.3     1  UNL1        0.0729
     17 C         139.4421  144.0578  165.4411 C.3     1  UNL1        0.0196
     18 C         138.1988  143.5344  164.7852 C.3     1  UNL1        0.0017
     19 C         138.0040  143.1717  162.2200 C.3     1  UNL1        0.0000
     20 C         137.7985  144.0352  163.4291 C.3     1  UNL1        0.0001
     21 C         141.4462  143.9290  163.7928 C.3     1  UNL1        0.0512
     22 C         141.7178  145.3833  163.5454 C.3     1  UNL1        0.1389
     23 O         140.7489  146.2014  162.7441 O.3     1  UNL1       -0.3819
     24 H         140.7348  145.8809  161.8287 H       1  UNL1        0.2104
     25 O         139.3971  138.6051  162.8283 O.3     1  UNL1       -0.4714
     26 C         138.1553  138.3265  162.0343 C.3     1  UNL1        0.2525
@<TRIPOS>BOND
     1    19    20    1
     2    20    18    1
     3    18    17    1
     4    16    17    1
     5    16    21    1
     6    21    22    1
     7    22    23    1
     8    16    14    1
     9    14     1    1
    10     1     2   ar
    11     2     3   ar
    12     3     4    1
    13     3     5   ar
    14     5     6   ar
    15     6     7   ar
    16     7     8   ar
    17     8     9   ar
    18     9    25    1
    19    25    26    1
    20     9    10   ar
    21    10    11   ar
    22    11     1   ar
    23    11     6   ar
    24    23    24    1
    25    14    15    1
    26     4    12    1
    27     4    13    1
@<TRIPOS>MOLECULE
*****
 26 27 0 0 0
SMALL
GASTEIGER

@<TRIPOS>ATOM
      1 C         140.6514  141.5551  164.2065 C.ar    1  UNL1        0.1328
      2 N         140.9910  141.4788  162.7475 N.ar    1  UNL1       -0.1993
      3 C         140.5861  140.2780  161.9450 C.ar    1  UNL1        0.2148
      4 N         140.9257  140.2017  160.4859 N.pl3   1  UNL1       -0.3274
      5 N         139.8416  139.1534  162.6015 N.ar    1  UNL1       -0.2139
      6 C         139.5020  139.2296  164.0607 C.ar    1  UNL1        0.0870
      7 C         138.7576  138.1051  164.7172 C.ar    1  UNL1        0.0224
      8 C         138.4181  138.1814  166.1762 C.ar    1  UNL1        0.0384
      9 C         138.8230  139.3822  166.9787 C.ar    1  UNL1        0.1389
     10 C         139.5674  140.5068  166.3222 C.ar    1  UNL1        0.0412
     11 C         139.9069  140.4305  164.8632 C.ar    1  UNL1        0.0522
     12 H         141.4143  140.9398  160.0550 H       1  UNL1        0.1452
     13 H         140.6599  139.4136  159.9592 H       1  UNL1        0.1452
     14 N         141.0563  142.7560  165.0090 N.pl3   1  UNL1       -0.3195
     15 H         141.6375  142.6487  165.7964 H       1  UNL1        0.1481
     16 C         140.5758  144.1202  164.6118 C.3     1  UNL1        0.0729
     17 C         139.2735  144.6410  165.1435 C.3     1  UNL1        0.0196
     18 C         137.9783  144.0740  164.6423 C.3     1  UNL1        0.0017
     19 C         137.5143  142.3845  162.7239 C.3     1  UNL1        0.0000
     20 C         137.8022  143.7838  163.1812 C.3     1  UNL1        0.0001
     21 C         141.3977  144.9639  163.6829 C.3     1  UNL1        0.0512
     22 C         142.7925  144.5442  163.3246 C.3     1  UNL1        0.1389
     23 O         143.7643  145.5525  162.7872 O.3     1  UNL1       -0.3819
     24 H         143.4608  145.8639  161.9202 H       1  UNL1        0.2104
     25 O         138.4834  139.4585  168.4379 O.3     1  UNL1       -0.4714
     26 C         139.2953  140.3268  169.3525 C.3     1  UNL1        0.2525
@<TRIPOS>BOND
     1    19    20    1
     2    20    18    1
     3    18    17    1
     4    16    17    1
     5    16    21    1
     6    21    22    1
     7    22    23    1
     8    16    14    1
     9    14     1    1
    10     1     2   ar
    11     2     3   ar
    12     3     4    1
    13     3     5   ar
    14     5     6   ar
    15     6     7   ar
    16     7     8   ar
    17     8     9   ar
    18     9    25    1
    19    25    26    1
    20     9    10   ar
    21    10    11   ar
    22    11     1   ar
    23    11     6   ar
    24    23    24    1
    25    14    15    1
    26     4    12    1
    27     4    13    1
@<TRIPOS>MOLECULE
*****
 26 27 0 0 0
SMALL
GASTEIGER

@<TRIPOS>ATOM
      1 C         141.7732  140.6101  167.6030 C.ar    1  UNL1        0.1328
      2 N         141.6919  141.2927  168.9362 N.ar    1  UNL1       -0.1993
      3 C         140.4257  141.2248  169.7376 C.ar    1  UNL1        0.2148
      4 N         140.3445  141.9074  171.0708 N.pl3   1  UNL1       -0.3274
      5 N         139.2408  140.4744  169.2058 N.ar    1  UNL1       -0.2139
      6 C         139.3221  139.7918  167.8725 C.ar    1  UNL1        0.0870
      7 C         138.1372  139.0413  167.3407 C.ar    1  UNL1        0.0224
      8 C         138.2185  138.3588  166.0075 C.ar    1  UNL1        0.0384
      9 C         139.4847  138.4266  165.2061 C.ar    1  UNL1        0.1389
     10 C         140.6695  139.1771  165.7379 C.ar    1  UNL1        0.0412
     11 C         140.5883  139.8596  167.0711 C.ar    1  UNL1        0.0522
     12 H         141.1222  142.4000  171.4199 H       1  UNL1        0.1452
     13 H         139.5135  141.8629  171.5968 H       1  UNL1        0.1452
     14 N         143.0393  140.6780  166.8016 N.pl3   1  UNL1       -0.3195
     15 H         143.7957  140.0889  167.0253 H       1  UNL1        0.1481
     16 C         143.1531  141.6435  165.6593 C.3     1  UNL1        0.0729
     17 C         142.3690  142.9221  165.6770 C.3     1  UNL1        0.0196
     18 C         141.1258  143.0511  164.8476 C.3     1  UNL1        0.0017
     19 C         139.0240  144.5084  165.3044 C.3     1  UNL1        0.0000
     20 C         139.7955  143.2393  165.5144 C.3     1  UNL1        0.0001
     21 C         144.0510  141.3303  164.4991 C.3     1  UNL1        0.0512
     22 C         145.1538  142.2767  164.1275 C.3     1  UNL1        0.1389
     23 O         146.3263  141.7861  163.3310 O.3     1  UNL1       -0.3819
     24 H         146.8312  141.1476  163.8586 H       1  UNL1        0.2104
     25 O         139.5659  137.7440  163.8728 O.3     1  UNL1       -0.4714
     26 C         140.8887  137.2594  163.3577 C.3     1  UNL1        0.2525
@<TRIPOS>BOND
     1    19    20    1
     2    20    18    1
     3    18    17    1
     4    16    17    1
     5    16    21    1
     6    21    22    1
     7    22    23    1
     8    16    14    1
     9    14     1    1
    10     1     2   ar
    11     2     3   ar
    12     3     4    1
    13     3     5   ar
    14     5     6   ar
    15     6     7   ar
    16     7     8   ar
    17     8     9   ar
    18     9    25    1
    19    25    26    1
    20     9    10   ar
    21    10    11   ar
    22    11     1   ar
    23    11     6   ar
    24    23    24    1
    25    14    15    1
    26     4    12    1
    27     4    13    1
