@<TRIPOS>MOLECULE
*****
 25 28 0 0 0
SMALL
GASTEIGER

@<TRIPOS>ATOM
      1 N         136.7730  141.2434  163.0191 N.3     1  UNL1       -0.3199
      2 C         138.1522  141.1799  163.6057 C.3     1  UNL1        0.0841
      3 C         138.3331  141.1427  165.0942 C.3     1  UNL1        0.0368
      4 C         139.7122  141.0792  165.6808 C.3     1  UNL1        0.0890
      5 C         140.9104  141.0528  164.7788 C.3     1  UNL1        0.1584
      6 O         140.7295  141.0900  163.2901 O.3     1  UNL1       -0.3490
      7 C         139.3504  141.1535  162.7036 C.3     1  UNL1        0.1538
      8 H         136.0839  141.2538  163.7710 H       1  UNL1        0.1189
      9 H         136.6176  140.4277  162.4267 H       1  UNL1        0.1189
     10 N         139.8932  141.0420  167.1693 N.3     1  UNL1       -0.2661
     11 C         140.5489  142.1014  168.0046 C.3     1  UNL1        0.0985
     12 C         140.5111  141.6530  169.4355 C.2     1  UNL1        0.0177
     13 C         140.8931  142.0307  170.8360 C.2     1  UNL1        0.1165
     14 N         140.4500  140.9275  171.7507 N.2     1  UNL1       -0.1513
     15 N         139.7943  139.8681  170.9155 N.2     1  UNL1       -0.1708
     16 C         139.8320  140.3164  169.4846 C.3     1  UNL1        0.1621
     17 C         139.4501  139.9388  168.0841 C.3     1  UNL1        0.1032
     18 C         139.1694  141.1907  161.2150 C.ar    1  UNL1        0.0355
     19 C         139.2643  139.9247  160.4161 C.ar    1  UNL1        0.0300
     20 C         139.0833  139.9619  158.9275 C.ar    1  UNL1        0.1400
     21 F         139.1781  138.6959  158.1286 F       1  UNL1       -0.2042
     22 C         138.8075  141.2651  158.2378 C.ar    1  UNL1        0.0319
     23 C         138.7127  142.5311  159.0369 C.ar    1  UNL1        0.0317
     24 C         138.8937  142.4939  160.5253 C.ar    1  UNL1        0.1386
     25 F         138.7988  143.7599  161.3244 F       1  UNL1       -0.2044
@<TRIPOS>BOND
     1     2     1    1
     2     2     3    1
     3     3     4    1
     4     4    10    1
     5    10    11    1
     6    11    12    1
     7    12    13    2
     8    13    14    1
     9    14    15    2
    10    15    16    1
    11    16    17    1
    12     4     5    1
    13     5     6    1
    14     6     7    1
    15     7    18    1
    16    18    19   ar
    17    19    20   ar
    18    20    21    1
    19    20    22   ar
    20    22    23   ar
    21    23    24   ar
    22    24    25    1
    23     7     2    1
    24    24    18   ar
    25    17    10    1
    26    16    12    1
    27     1     8    1
    28     1     9    1
@<TRIPOS>MOLECULE
*****
 25 28 0 0 0
SMALL
GASTEIGER

@<TRIPOS>ATOM
      1 N         136.7101  141.3686  163.0385 N.3     1  UNL1       -0.3199
      2 C         138.0927  141.2420  163.6064 C.3     1  UNL1        0.0841
      3 C         138.2919  141.1972  165.0924 C.3     1  UNL1        0.0368
      4 C         139.6745  141.0706  165.6604 C.3     1  UNL1        0.0890
      5 C         140.8578  140.9887  164.7422 C.3     1  UNL1        0.1584
      6 O         140.6586  141.0335  163.2561 O.3     1  UNL1       -0.3490
      7 C         139.2761  141.1601  162.6882 C.3     1  UNL1        0.1538
      8 H         136.0324  141.4110  163.7996 H       1  UNL1        0.1189
      9 H         136.5093  140.5606  162.4491 H       1  UNL1        0.1189
     10 N         139.8737  141.0259  167.1463 N.3     1  UNL1       -0.2661
     11 C         140.5781  142.0604  167.9731 C.3     1  UNL1        0.0985
     12 C         140.5432  141.6126  169.4042 C.2     1  UNL1        0.0177
     13 C         140.9571  141.9753  170.7997 C.2     1  UNL1        0.1165
     14 N         140.4868  140.8881  171.7199 N.2     1  UNL1       -0.1513
     15 N         139.7823  139.8536  170.8932 N.2     1  UNL1       -0.1708
     16 C         139.8172  140.3013  169.4621 C.3     1  UNL1        0.1621
     17 C         139.4034  139.9386  168.0666 C.3     1  UNL1        0.1032
     18 C         139.0768  141.2049  161.2022 C.ar    1  UNL1        0.0355
     19 C         139.2029  142.5065  160.4674 C.ar    1  UNL1        0.0300
     20 C         139.0036  142.5512  158.9814 C.ar    1  UNL1        0.1400
     21 F         139.1297  143.8528  158.2466 F       1  UNL1       -0.2042
     22 C         138.6783  141.2944  158.2301 C.ar    1  UNL1        0.0319
     23 C         138.5523  139.9927  158.9650 C.ar    1  UNL1        0.0317
     24 C         138.7515  139.9480  160.4509 C.ar    1  UNL1        0.1386
     25 F         138.6254  138.6463  161.1858 F       1  UNL1       -0.2044
@<TRIPOS>BOND
     1     2     1    1
     2     2     3    1
     3     3     4    1
     4     4    10    1
     5    10    11    1
     6    11    12    1
     7    12    13    2
     8    13    14    1
     9    14    15    2
    10    15    16    1
    11    16    17    1
    12     4     5    1
    13     5     6    1
    14     6     7    1
    15     7    18    1
    16    18    19   ar
    17    19    20   ar
    18    20    21    1
    19    20    22   ar
    20    22    23   ar
    21    23    24   ar
    22    24    25    1
    23     7     2    1
    24    24    18   ar
    25    17    10    1
    26    16    12    1
    27     1     8    1
    28     1     9    1
@<TRIPOS>MOLECULE
*****
 25 28 0 0 0
SMALL
GASTEIGER

@<TRIPOS>ATOM
      1 N         143.5986  138.3757  167.3477 N.3     1  UNL1       -0.3199
      2 C         143.0032  139.2688  166.2998 C.3     1  UNL1        0.0841
      3 C         143.2060  138.9584  164.8464 C.3     1  UNL1        0.0368
      4 C         142.6106  139.8515  163.7985 C.3     1  UNL1        0.0890
      5 C         141.8125  141.0549  164.2042 C.3     1  UNL1        0.1584
      6 O         141.6097  141.3654  165.6577 O.3     1  UNL1       -0.3490
      7 C         142.2050  140.4723  166.7055 C.3     1  UNL1        0.1538
      8 H         144.1041  137.6129  166.8971 H       1  UNL1        0.1189
      9 H         142.8545  137.9928  167.9308 H       1  UNL1        0.1189
     10 N         142.8134  139.5411  162.3452 N.3     1  UNL1       -0.2661
     11 C         142.1733  138.4168  161.5860 C.3     1  UNL1        0.0985
     12 C         142.6562  138.4813  160.1673 C.2     1  UNL1        0.0177
     13 C         142.5590  137.8263  158.8214 C.2     1  UNL1        0.1165
     14 N         143.4375  138.5857  157.8719 N.2     1  UNL1       -0.1513
     15 N         144.0776  139.7100  158.6310 N.2     1  UNL1       -0.1708
     16 C         143.5948  139.6455  160.0496 C.3     1  UNL1        0.1621
     17 C         143.6920  140.3004  161.3956 C.3     1  UNL1        0.1032
     18 C         142.0023  140.7827  168.1589 C.ar    1  UNL1        0.0355
     19 C         140.9887  140.0157  168.9553 C.ar    1  UNL1        0.0300
     20 C         140.7859  140.3261  170.4088 C.ar    1  UNL1        0.1400
     21 F         139.7723  139.5591  171.2052 F       1  UNL1       -0.2042
     22 C         141.5967  141.4035  171.0659 C.ar    1  UNL1        0.0319
     23 C         142.6104  142.1705  170.2693 C.ar    1  UNL1        0.0317
     24 C         142.8131  141.8601  168.8160 C.ar    1  UNL1        0.1386
     25 F         143.8268  142.6271  168.0195 F       1  UNL1       -0.2044
@<TRIPOS>BOND
     1     2     1    1
     2     2     3    1
     3     3     4    1
     4     4    10    1
     5    10    11    1
     6    11    12    1
     7    12    13    2
     8    13    14    1
     9    14    15    2
    10    15    16    1
    11    16    17    1
    12     4     5    1
    13     5     6    1
    14     6     7    1
    15     7    18    1
    16    18    19   ar
    17    19    20   ar
    18    20    21    1
    19    20    22   ar
    20    22    23   ar
    21    23    24   ar
    22    24    25    1
    23     7     2    1
    24    24    18   ar
    25    17    10    1
    26    16    12    1
    27     1     8    1
    28     1     9    1
@<TRIPOS>MOLECULE
*****
 25 28 0 0 0
SMALL
GASTEIGER

@<TRIPOS>ATOM
      1 N         139.4817  145.4899  163.5357 N.3     1  UNL1       -0.3199
      2 C         139.9339  144.1322  163.9855 C.3     1  UNL1        0.0841
      3 C         139.9443  143.7909  165.4460 C.3     1  UNL1        0.0368
      4 C         140.3965  142.4332  165.8959 C.3     1  UNL1        0.0890
      5 C         140.8383  141.4169  164.8850 C.3     1  UNL1        0.1584
      6 O         140.8279  141.7582  163.4243 O.3     1  UNL1       -0.3490
      7 C         140.3757  143.1158  162.9746 C.3     1  UNL1        0.1538
      8 H         139.2195  146.0475  164.3485 H       1  UNL1        0.1189
      9 H         138.6771  145.3924  162.9164 H       1  UNL1        0.1189
     10 N         140.4069  142.0919  167.3564 N.3     1  UNL1       -0.2661
     11 C         140.4729  140.7111  167.9388 C.3     1  UNL1        0.0985
     12 C         140.4599  140.8373  169.4334 C.2     1  UNL1        0.0177
     13 C         140.4927  140.0619  170.7170 C.2     1  UNL1        0.1165
     14 N         140.4389  141.0415  171.8517 N.2     1  UNL1       -0.1513
     15 N         140.3728  142.4223  171.2694 N.2     1  UNL1       -0.1708
     16 C         140.3858  142.2961  169.7748 C.3     1  UNL1        0.1621
     17 C         140.3531  143.0715  168.4912 C.3     1  UNL1        0.1032
     18 C         140.3653  143.4571  161.5140 C.ar    1  UNL1        0.0355
     19 C         139.2440  142.9790  160.6400 C.ar    1  UNL1        0.0300
     20 C         139.2336  143.3203  159.1794 C.ar    1  UNL1        0.1400
     21 F         138.1122  142.8421  158.3053 F       1  UNL1       -0.2042
     22 C         140.3446  144.1398  158.5927 C.ar    1  UNL1        0.0319
     23 C         141.4659  144.6180  159.4668 C.ar    1  UNL1        0.0317
     24 C         141.4763  144.2767  160.9274 C.ar    1  UNL1        0.1386
     25 F         142.5977  144.7549  161.8015 F       1  UNL1       -0.2044
@<TRIPOS>BOND
     1     2     1    1
     2     2     3    1
     3     3     4    1
     4     4    10    1
     5    10    11    1
     6    11    12    1
     7    12    13    2
     8    13    14    1
     9    14    15    2
    10    15    16    1
    11    16    17    1
    12     4     5    1
    13     5     6    1
    14     6     7    1
    15     7    18    1
    16    18    19   ar
    17    19    20   ar
    18    20    21    1
    19    20    22   ar
    20    22    23   ar
    21    23    24   ar
    22    24    25    1
    23     7     2    1
    24    24    18   ar
    25    17    10    1
    26    16    12    1
    27     1     8    1
    28     1     9    1
@<TRIPOS>MOLECULE
*****
 25 28 0 0 0
SMALL
GASTEIGER

@<TRIPOS>ATOM
      1 N         141.7783  142.2047  165.7599 N.3     1  UNL1       -0.3199
      2 C         141.8981  140.8352  165.1598 C.3     1  UNL1        0.0841
      3 C         142.1995  140.6803  163.6987 C.3     1  UNL1        0.0368
      4 C         142.3193  139.3107  163.0986 C.3     1  UNL1        0.0890
      5 C         142.1377  138.0961  163.9598 C.3     1  UNL1        0.1584
      6 O         141.8363  138.2509  165.4211 O.3     1  UNL1       -0.3490
      7 C         141.7165  139.6205  166.0211 C.3     1  UNL1        0.1538
      8 H         141.9299  142.9075  165.0363 H       1  UNL1        0.1189
      9 H         142.4773  142.3166  166.4942 H       1  UNL1        0.1189
     10 N         142.6207  139.1558  161.6374 N.3     1  UNL1       -0.2661
     11 C         142.0800  138.0874  160.7340 C.3     1  UNL1        0.0985
     12 C         142.6408  138.3134  159.3613 C.2     1  UNL1        0.0177
     13 C         142.6533  137.7927  157.9546 C.2     1  UNL1        0.1165
     14 N         143.5484  138.6791  157.1403 N.2     1  UNL1       -0.1513
     15 N         144.0892  139.7475  158.0436 N.2     1  UNL1       -0.1708
     16 C         143.5283  139.5215  159.4163 C.3     1  UNL1        0.1621
     17 C         143.5159  140.0421  160.8230 C.3     1  UNL1        0.1032
     18 C         141.4151  139.7754  167.4823 C.ar    1  UNL1        0.0355
     19 C         142.5143  139.6378  168.4935 C.ar    1  UNL1        0.0300
     20 C         142.2129  139.7928  169.9548 C.ar    1  UNL1        0.1400
     21 F         143.3122  139.6552  170.9660 F       1  UNL1       -0.2042
     22 C         140.8122  140.0853  170.4047 C.ar    1  UNL1        0.0319
     23 C         139.7130  140.2229  169.3934 C.ar    1  UNL1        0.0317
     24 C         140.0144  140.0679  167.9322 C.ar    1  UNL1        0.1386
     25 F         138.9151  140.2055  166.9209 F       1  UNL1       -0.2044
@<TRIPOS>BOND
     1     2     1    1
     2     2     3    1
     3     3     4    1
     4     4    10    1
     5    10    11    1
     6    11    12    1
     7    12    13    2
     8    13    14    1
     9    14    15    2
    10    15    16    1
    11    16    17    1
    12     4     5    1
    13     5     6    1
    14     6     7    1
    15     7    18    1
    16    18    19   ar
    17    19    20   ar
    18    20    21    1
    19    20    22   ar
    20    22    23   ar
    21    23    24   ar
    22    24    25    1
    23     7     2    1
    24    24    18   ar
    25    17    10    1
    26    16    12    1
    27     1     8    1
    28     1     9    1
@<TRIPOS>MOLECULE
*****
 25 28 0 0 0
SMALL
GASTEIGER

@<TRIPOS>ATOM
      1 N         142.9257  139.2989  166.9011 N.3     1  UNL1       -0.3199
      2 C         142.1434  139.8177  165.7311 C.3     1  UNL1        0.0841
      3 C         142.5351  139.4305  164.3359 C.3     1  UNL1        0.0368
      4 C         141.7527  139.9493  163.1659 C.3     1  UNL1        0.0890
      5 C         140.5787  140.8553  163.3912 C.3     1  UNL1        0.1584
      6 O         140.1869  141.2426  164.7864 O.3     1  UNL1       -0.3490
      7 C         140.9693  140.7238  165.9564 C.3     1  UNL1        0.1538
      8 H         143.6826  138.7026  166.5665 H       1  UNL1        0.1189
      9 H         142.3103  138.7583  167.5088 H       1  UNL1        0.1189
     10 N         142.1444  139.5621  161.7708 N.3     1  UNL1       -0.2661
     11 C         141.6422  138.3689  161.0129 C.3     1  UNL1        0.0985
     12 C         142.2945  138.3695  159.6622 C.2     1  UNL1        0.0177
     13 C         142.3873  137.6324  158.3591 C.2     1  UNL1        0.1165
     14 N         143.3500  138.3703  157.4767 N.2     1  UNL1       -0.1513
     15 N         143.8523  139.5634  158.2345 N.2     1  UNL1       -0.1708
     16 C         143.1999  139.5629  159.5852 C.3     1  UNL1        0.1621
     17 C         143.1072  140.3000  160.8883 C.3     1  UNL1        0.1032
     18 C         140.5776  141.1110  167.3516 C.ar    1  UNL1        0.0355
     19 C         141.1465  142.3519  167.9733 C.ar    1  UNL1        0.0300
     20 C         140.7548  142.7391  169.3685 C.ar    1  UNL1        0.1400
     21 F         141.3237  143.9800  169.9902 F       1  UNL1       -0.2042
     22 C         139.7942  141.8854  170.1421 C.ar    1  UNL1        0.0319
     23 C         139.2253  140.6444  169.5203 C.ar    1  UNL1        0.0317
     24 C         139.6170  140.2573  168.1252 C.ar    1  UNL1        0.1386
     25 F         139.0481  139.0163  167.5034 F       1  UNL1       -0.2044
@<TRIPOS>BOND
     1     2     1    1
     2     2     3    1
     3     3     4    1
     4     4    10    1
     5    10    11    1
     6    11    12    1
     7    12    13    2
     8    13    14    1
     9    14    15    2
    10    15    16    1
    11    16    17    1
    12     4     5    1
    13     5     6    1
    14     6     7    1
    15     7    18    1
    16    18    19   ar
    17    19    20   ar
    18    20    21    1
    19    20    22   ar
    20    22    23   ar
    21    23    24   ar
    22    24    25    1
    23     7     2    1
    24    24    18   ar
    25    17    10    1
    26    16    12    1
    27     1     8    1
    28     1     9    1
@<TRIPOS>MOLECULE
*****
 25 28 0 0 0
SMALL
GASTEIGER

@<TRIPOS>ATOM
      1 N         141.8200  139.1250  166.1495 N.3     1  UNL1       -0.3199
      2 C         140.7341  139.7733  165.3428 C.3     1  UNL1        0.0841
      3 C         140.6085  139.4757  163.8781 C.3     1  UNL1        0.0368
      4 C         139.5226  140.1240  163.0714 C.3     1  UNL1        0.0890
      5 C         138.5624  141.0699  163.7296 C.3     1  UNL1        0.1584
      6 O         138.6881  141.3676  165.1944 O.3     1  UNL1       -0.3490
      7 C         139.7739  140.7193  166.0010 C.3     1  UNL1        0.1538
      8 H         142.3751  138.5177  165.5466 H       1  UNL1        0.1189
      9 H         141.4032  138.5718  166.8982 H       1  UNL1        0.1189
     10 N         139.3969  139.8263  161.6067 N.3     1  UNL1       -0.2661
     11 C         140.2253  138.8445  160.8322 C.3     1  UNL1        0.0985
     12 C         139.7611  138.8696  159.4061 C.2     1  UNL1        0.0177
     13 C         139.9863  138.2782  158.0461 C.2     1  UNL1        0.1165
     14 N         139.0101  138.9102  157.0986 N.2     1  UNL1       -0.1513
     15 N         138.1817  139.8920  157.8730 N.2     1  UNL1       -0.1708
     16 C         138.6459  139.8669  159.2991 C.3     1  UNL1        0.1621
     17 C         138.4207  140.4582  160.6591 C.3     1  UNL1        0.1032
     18 C         139.8996  141.0170  167.4658 C.ar    1  UNL1        0.0355
     19 C         140.7183  142.1866  167.9259 C.ar    1  UNL1        0.0300
     20 C         140.8440  142.4842  169.3907 C.ar    1  UNL1        0.1400
     21 F         141.6628  143.6538  169.8508 F       1  UNL1       -0.2042
     22 C         140.1510  141.6123  170.3954 C.ar    1  UNL1        0.0319
     23 C         139.3322  140.4427  169.9352 C.ar    1  UNL1        0.0317
     24 C         139.2066  140.1451  168.4705 C.ar    1  UNL1        0.1386
     25 F         138.3878  138.9754  168.0103 F       1  UNL1       -0.2044
@<TRIPOS>BOND
     1     2     1    1
     2     2     3    1
     3     3     4    1
     4     4    10    1
     5    10    11    1
     6    11    12    1
     7    12    13    2
     8    13    14    1
     9    14    15    2
    10    15    16    1
    11    16    17    1
    12     4     5    1
    13     5     6    1
    14     6     7    1
    15     7    18    1
    16    18    19   ar
    17    19    20   ar
    18    20    21    1
    19    20    22   ar
    20    22    23   ar
    21    23    24   ar
    22    24    25    1
    23     7     2    1
    24    24    18   ar
    25    17    10    1
    26    16    12    1
    27     1     8    1
    28     1     9    1
@<TRIPOS>MOLECULE
*****
 25 28 0 0 0
SMALL
GASTEIGER

@<TRIPOS>ATOM
      1 N         143.0460  145.1650  162.9625 N.3     1  UNL1       -0.3199
      2 C         142.0605  144.0546  163.1776 C.3     1  UNL1        0.0841
      3 C         141.7490  143.5873  164.5684 C.3     1  UNL1        0.0368
      4 C         140.7636  142.4770  164.7835 C.3     1  UNL1        0.0890
      5 C         140.0897  141.8341  163.6077 C.3     1  UNL1        0.1584
      6 O         140.4012  142.3014  162.2168 O.3     1  UNL1       -0.3490
      7 C         141.3866  143.4117  162.0017 C.3     1  UNL1        0.1538
      8 H         143.4035  145.4816  163.8638 H       1  UNL1        0.1189
      9 H         142.5852  145.9413  162.4877 H       1  UNL1        0.1189
     10 N         140.4521  142.0097  166.1743 N.3     1  UNL1       -0.2661
     11 C         140.6212  142.8096  167.4319 C.3     1  UNL1        0.0985
     12 C         140.1904  141.9546  168.5867 C.2     1  UNL1        0.0177
     13 C         140.0287  141.9207  170.0775 C.2     1  UNL1        0.1165
     14 N         139.4934  140.5713  170.4550 N.2     1  UNL1       -0.1513
     15 N         139.3242  139.7713  169.1975 N.2     1  UNL1       -0.1708
     16 C         139.7550  140.6262  168.0428 C.3     1  UNL1        0.1621
     17 C         139.9167  140.6602  166.5519 C.3     1  UNL1        0.1032
     18 C         141.6981  143.8791  160.6109 C.ar    1  UNL1        0.0355
     19 C         142.7303  143.1619  159.7922 C.ar    1  UNL1        0.0300
     20 C         143.0418  143.6293  158.4013 C.ar    1  UNL1        0.1400
     21 F         144.0740  142.9121  157.5827 F       1  UNL1       -0.2042
     22 C         142.3211  144.8138  157.8291 C.ar    1  UNL1        0.0319
     23 C         141.2889  145.5310  158.6479 C.ar    1  UNL1        0.0317
     24 C         140.9774  145.0636  160.0386 C.ar    1  UNL1        0.1386
     25 F         139.9452  145.7808  160.8574 F       1  UNL1       -0.2044
@<TRIPOS>BOND
     1     2     1    1
     2     2     3    1
     3     3     4    1
     4     4    10    1
     5    10    11    1
     6    11    12    1
     7    12    13    2
     8    13    14    1
     9    14    15    2
    10    15    16    1
    11    16    17    1
    12     4     5    1
    13     5     6    1
    14     6     7    1
    15     7    18    1
    16    18    19   ar
    17    19    20   ar
    18    20    21    1
    19    20    22   ar
    20    22    23   ar
    21    23    24   ar
    22    24    25    1
    23     7     2    1
    24    24    18   ar
    25    17    10    1
    26    16    12    1
    27     1     8    1
    28     1     9    1
@<TRIPOS>MOLECULE
*****
 25 28 0 0 0
SMALL
GASTEIGER

@<TRIPOS>ATOM
      1 N         145.0987  140.1527  163.6698 N.3     1  UNL1       -0.3199
      2 C         143.8666  140.9119  164.0645 C.3     1  UNL1        0.0841
      3 C         143.4782  141.0121  165.5097 C.3     1  UNL1        0.0368
      4 C         142.2461  141.7713  165.9044 C.3     1  UNL1        0.0890
      5 C         141.4025  142.4303  164.8536 C.3     1  UNL1        0.1584
      6 O         141.7910  142.3301  163.4082 O.3     1  UNL1       -0.3490
      7 C         143.0230  141.5710  163.0136 C.3     1  UNL1        0.1538
      8 H         145.5465  139.7738  164.5042 H       1  UNL1        0.1189
      9 H         145.7458  140.7797  163.1917 H       1  UNL1        0.1189
     10 N         141.8576  141.8714  167.3497 N.3     1  UNL1       -0.2661
     11 C         142.4826  141.1162  168.4851 C.3     1  UNL1        0.0985
     12 C         141.7872  141.5224  169.7505 C.2     1  UNL1        0.0177
     13 C         141.7437  141.3067  171.2343 C.2     1  UNL1        0.1165
     14 N         140.6620  142.1796  171.7980 N.2     1  UNL1       -0.1513
     15 N         140.0370  142.9349  170.6627 N.2     1  UNL1       -0.1708
     16 C         140.7324  142.5287  169.3973 C.3     1  UNL1        0.1621
     17 C         140.7759  142.7444  167.9135 C.3     1  UNL1        0.1032
     18 C         143.4115  141.4708  161.5683 C.ar    1  UNL1        0.0355
     19 C         142.9919  140.2791  160.7597 C.ar    1  UNL1        0.0300
     20 C         143.3804  140.1790  159.3144 C.ar    1  UNL1        0.1400
     21 F         142.9608  138.9873  158.5058 F       1  UNL1       -0.2042
     22 C         144.1885  141.2705  158.6776 C.ar    1  UNL1        0.0319
     23 C         144.6081  142.4622  159.4862 C.ar    1  UNL1        0.0317
     24 C         144.2196  142.5623  160.9315 C.ar    1  UNL1        0.1386
     25 F         144.6392  143.7541  161.7401 F       1  UNL1       -0.2044
@<TRIPOS>BOND
     1     2     1    1
     2     2     3    1
     3     3     4    1
     4     4    10    1
     5    10    11    1
     6    11    12    1
     7    12    13    2
     8    13    14    1
     9    14    15    2
    10    15    16    1
    11    16    17    1
    12     4     5    1
    13     5     6    1
    14     6     7    1
    15     7    18    1
    16    18    19   ar
    17    19    20   ar
    18    20    21    1
    19    20    22   ar
    20    22    23   ar
    21    23    24   ar
    22    24    25    1
    23     7     2    1
    24    24    18   ar
    25    17    10    1
    26    16    12    1
    27     1     8    1
    28     1     9    1
