@<TRIPOS>MOLECULE
*****
 31 32 0 0 0
SMALL
GASTEIGER

@<TRIPOS>ATOM
      1 C         138.7323  138.9007  165.7989 C.ar    1  UNL1        0.0654
      2 C         137.8457  138.5626  166.9606 C.ar    1  UNL1        0.1133
      3 N         138.1410  139.1271  168.3187 N.ar    1  UNL1       -0.2367
      4 C         139.3229  140.0295  168.5150 C.ar    1  UNL1        0.1476
      5 C         140.2095  140.3676  167.3533 C.ar    1  UNL1        0.0730
      6 C         139.9142  139.8032  165.9952 C.ar    1  UNL1        0.0322
      7 C         139.6182  140.5940  169.8730 C.2     1  UNL1        0.2617
      8 N         139.7988  139.6745  171.0443 N.am    1  UNL1       -0.3240
      9 O         139.7329  142.0778  170.0597 O.2     1  UNL1       -0.2687
     10 H         139.7235  138.7006  170.9217 H       1  UNL1        0.1453
     11 H         139.9926  140.0450  171.9356 H       1  UNL1        0.1453
     12 N         138.4370  138.3362  164.4409 N.pl3   1  UNL1       -0.3303
     13 H         137.6271  138.6170  163.9566 H       1  UNL1        0.1469
     14 C         139.3756  137.3441  163.8208 C.3     1  UNL1        0.1053
     15 C         140.0215  137.6461  162.5011 C.3     1  UNL1        0.1006
     16 N         141.4526  137.2657  162.2620 N.3     1  UNL1       -0.3188
     17 H         141.7253  137.5438  161.3193 H       1  UNL1        0.1189
     18 H         141.5573  136.2561  162.3623 H       1  UNL1        0.1189
     19 C         139.2361  138.3285  161.4204 C.3     1  UNL1        0.1593
     20 C         137.6968  140.4163  161.5666 C.3     1  UNL1        0.1742
     21 O         137.9029  138.9400  161.7344 O.3     1  UNL1       -0.3496
     22 N         141.3915  141.2701  167.5495 N.pl3   1  UNL1       -0.2966
     23 H         141.7966  141.3636  168.4419 H       1  UNL1        0.1537
     24 C         141.9561  142.0302  166.3862 C.ar    1  UNL1        0.1315
     25 C         143.3392  141.7262  165.8918 C.ar    1  UNL1        0.0301
     26 C         143.9038  142.4864  164.7284 C.ar    1  UNL1       -0.0179
     27 C         145.2870  142.1823  164.2340 C.3     1  UNL1        0.0312
     28 C         143.0853  143.5505  164.0594 C.ar    1  UNL1        0.0106
     29 C         141.7021  143.8545  164.5538 C.ar    1  UNL1        0.0605
     30 C         140.8836  144.9187  163.8849 C.3     1  UNL1        0.0521
     31 N         141.1375  143.0944  165.7172 N.ar    1  UNL1       -0.2349
@<TRIPOS>BOND
     1    20    21    1
     2    21    19    1
     3    19    15    1
     4    15    16    1
     5    15    14    1
     6    14    12    1
     7    12     1    1
     8     1     2   ar
     9     2     3   ar
    10     3     4   ar
    11     4     7    1
    12     7     8   am
    13     7     9    2
    14     4     5   ar
    15     5    22    1
    16    22    24    1
    17    24    25   ar
    18    25    26   ar
    19    26    27    1
    20    26    28   ar
    21    28    29   ar
    22    29    30    1
    23    29    31   ar
    24     5     6   ar
    25     6     1   ar
    26    31    24   ar
    27    16    17    1
    28    16    18    1
    29    12    13    1
    30     8    10    1
    31     8    11    1
    32    22    23    1
@<TRIPOS>MOLECULE
*****
 31 32 0 0 0
SMALL
GASTEIGER

@<TRIPOS>ATOM
      1 C         138.7993  139.0387  165.6546 C.ar    1  UNL1        0.0654
      2 C         137.9354  138.6455  166.8161 C.ar    1  UNL1        0.1133
      3 N         138.2469  139.1596  168.1903 N.ar    1  UNL1       -0.2367
      4 C         139.4223  140.0668  168.4032 C.ar    1  UNL1        0.1476
      5 C         140.2862  140.4600  167.2417 C.ar    1  UNL1        0.0730
      6 C         139.9747  139.9459  165.8674 C.ar    1  UNL1        0.0322
      7 C         139.7338  140.5809  169.7775 C.2     1  UNL1        0.2617
      8 N         139.8542  139.6244  170.9266 N.am    1  UNL1       -0.3240
      9 O         139.9248  142.0516  170.0026 O.2     1  UNL1       -0.2687
     10 H         139.7289  138.6592  170.7788 H       1  UNL1        0.1453
     11 H         140.0587  139.9619  171.8286 H       1  UNL1        0.1453
     12 N         138.4878  138.5246  164.2803 N.pl3   1  UNL1       -0.3303
     13 H         138.4330  137.5550  164.1181 H       1  UNL1        0.1469
     14 C         138.2599  139.4876  163.1531 C.3     1  UNL1        0.1053
     15 C         138.1360  138.9805  161.7469 C.3     1  UNL1        0.1006
     16 N         136.9799  139.4106  160.8935 N.3     1  UNL1       -0.3188
     17 H         137.0541  138.9735  159.9749 H       1  UNL1        0.1189
     18 H         136.9931  140.4252  160.7894 H       1  UNL1        0.1189
     19 C         139.1685  138.0432  161.1939 C.3     1  UNL1        0.1593
     20 C         141.6301  137.8852  162.0095 C.3     1  UNL1        0.1742
     21 O         140.1999  137.4429  162.1027 O.3     1  UNL1       -0.3496
     22 N         141.4617  141.3672  167.4545 N.pl3   1  UNL1       -0.2966
     23 H         141.8159  141.5093  168.3620 H       1  UNL1        0.1537
     24 C         142.0974  142.0579  166.2846 C.ar    1  UNL1        0.1315
     25 C         141.3820  143.1840  165.5990 C.ar    1  UNL1        0.0301
     26 C         142.0178  143.8748  164.4290 C.ar    1  UNL1       -0.0179
     27 C         141.3024  145.0009  163.7435 C.3     1  UNL1        0.0312
     28 C         143.3690  143.4393  163.9447 C.ar    1  UNL1        0.0106
     29 C         144.0845  142.3132  164.6303 C.ar    1  UNL1        0.0605
     30 C         145.4357  141.8778  164.1460 C.3     1  UNL1        0.0521
     31 N         143.4487  141.6225  165.8002 N.ar    1  UNL1       -0.2349
@<TRIPOS>BOND
     1    20    21    1
     2    21    19    1
     3    19    15    1
     4    15    16    1
     5    15    14    1
     6    14    12    1
     7    12     1    1
     8     1     2   ar
     9     2     3   ar
    10     3     4   ar
    11     4     7    1
    12     7     8   am
    13     7     9    2
    14     4     5   ar
    15     5    22    1
    16    22    24    1
    17    24    25   ar
    18    25    26   ar
    19    26    27    1
    20    26    28   ar
    21    28    29   ar
    22    29    30    1
    23    29    31   ar
    24     5     6   ar
    25     6     1   ar
    26    31    24   ar
    27    16    17    1
    28    16    18    1
    29    12    13    1
    30     8    10    1
    31     8    11    1
    32    22    23    1
@<TRIPOS>MOLECULE
*****
 31 32 0 0 0
SMALL
GASTEIGER

@<TRIPOS>ATOM
      1 C         139.4803  139.8911  167.6790 C.ar    1  UNL1        0.0654
      2 C         138.3033  139.0399  167.3049 C.ar    1  UNL1        0.1133
      3 N         137.7323  139.1164  165.9199 N.ar    1  UNL1       -0.2367
      4 C         138.3384  140.0442  164.9091 C.ar    1  UNL1        0.1476
      5 C         139.5154  140.8954  165.2832 C.ar    1  UNL1        0.0730
      6 C         140.0863  140.8189  166.6682 C.ar    1  UNL1        0.0322
      7 C         137.7674  140.1208  163.5241 C.2     1  UNL1        0.2617
      8 N         136.8814  141.2687  163.1405 N.am    1  UNL1       -0.3240
      9 O         138.0824  139.0494  162.5227 O.2     1  UNL1       -0.2687
     10 H         136.6747  141.9720  163.7977 H       1  UNL1        0.1453
     11 H         136.5067  141.3190  162.2315 H       1  UNL1        0.1453
     12 N         140.0512  139.8145  169.0640 N.pl3   1  UNL1       -0.3303
     13 H         139.4544  139.6838  169.8359 H       1  UNL1        0.1469
     14 C         141.5315  139.9372  169.2728 C.3     1  UNL1        0.1053
     15 C         142.0683  140.3548  170.6098 C.3     1  UNL1        0.1006
     16 N         143.3722  139.7997  171.1011 N.3     1  UNL1       -0.3188
     17 H         143.5825  140.1886  172.0203 H       1  UNL1        0.1189
     18 H         144.1154  140.0489  170.4484 H       1  UNL1        0.1189
     19 C         141.3010  141.3277  171.4554 C.3     1  UNL1        0.1593
     20 C         140.2694  143.2746  170.0787 C.3     1  UNL1        0.1742
     21 O         140.0989  142.0258  170.8919 O.3     1  UNL1       -0.3496
     22 N         140.1215  141.8233  164.2723 N.pl3   1  UNL1       -0.2966
     23 H         139.5531  142.2446  163.5877 H       1  UNL1        0.1537
     24 C         141.5936  142.1093  164.3046 C.ar    1  UNL1        0.1315
     25 C         142.0806  143.5238  164.4140 C.ar    1  UNL1        0.0301
     26 C         143.5528  143.8098  164.4462 C.ar    1  UNL1       -0.0179
     27 C         144.0398  145.2243  164.5557 C.3     1  UNL1        0.0312
     28 C         144.5379  142.6812  164.3690 C.ar    1  UNL1        0.0106
     29 C         144.0509  141.2667  164.2596 C.ar    1  UNL1        0.0605
     30 C         145.0359  140.1382  164.1824 C.3     1  UNL1        0.0521
     31 N         142.5788  140.9807  164.2274 N.ar    1  UNL1       -0.2349
@<TRIPOS>BOND
     1    20    21    1
     2    21    19    1
     3    19    15    1
     4    15    16    1
     5    15    14    1
     6    14    12    1
     7    12     1    1
     8     1     2   ar
     9     2     3   ar
    10     3     4   ar
    11     4     7    1
    12     7     8   am
    13     7     9    2
    14     4     5   ar
    15     5    22    1
    16    22    24    1
    17    24    25   ar
    18    25    26   ar
    19    26    27    1
    20    26    28   ar
    21    28    29   ar
    22    29    30    1
    23    29    31   ar
    24     5     6   ar
    25     6     1   ar
    26    31    24   ar
    27    16    17    1
    28    16    18    1
    29    12    13    1
    30     8    10    1
    31     8    11    1
    32    22    23    1
@<TRIPOS>MOLECULE
*****
 31 32 0 0 0
SMALL
GASTEIGER

@<TRIPOS>ATOM
      1 C         142.5214  143.5886  163.6889 C.ar    1  UNL1        0.0654
      2 C         142.0358  144.2469  162.4317 C.ar    1  UNL1        0.1133
      3 N         140.5824  144.1852  162.0659 N.ar    1  UNL1       -0.2367
      4 C         139.6146  143.4650  162.9574 C.ar    1  UNL1        0.1476
      5 C         140.1002  142.8067  164.2146 C.ar    1  UNL1        0.0730
      6 C         141.5536  142.8684  164.5804 C.ar    1  UNL1        0.0322
      7 C         138.1612  143.4033  162.5916 C.2     1  UNL1        0.2617
      8 N         137.3507  144.6636  162.5236 N.am    1  UNL1       -0.3240
      9 O         137.5183  142.0812  162.2938 O.2     1  UNL1       -0.2687
     10 H         137.7727  145.5313  162.7190 H       1  UNL1        0.1453
     11 H         136.3968  144.6230  162.2835 H       1  UNL1        0.1453
     12 N         143.9748  143.6503  164.0547 N.pl3   1  UNL1       -0.3303
     13 H         144.5052  144.4491  163.8312 H       1  UNL1        0.1469
     14 C         144.6202  142.4951  164.7610 C.3     1  UNL1        0.1053
     15 C         145.3289  141.4346  163.9716 C.3     1  UNL1        0.1006
     16 N         146.2608  141.8223  162.8621 N.3     1  UNL1       -0.3188
     17 H         146.6517  140.9816  162.4369 H       1  UNL1        0.1189
     18 H         147.0160  142.3961  163.2374 H       1  UNL1        0.1189
     19 C         145.1054  139.9862  164.2917 C.3     1  UNL1        0.1593
     20 C         143.1233  138.6491  165.3082 C.3     1  UNL1        0.1742
     21 O         143.7351  139.3911  164.1571 O.3     1  UNL1       -0.3496
     22 N         139.1324  142.0865  165.1061 N.pl3   1  UNL1       -0.2966
     23 H         138.5476  142.5968  165.7117 H       1  UNL1        0.1537
     24 C         139.0557  140.5888  165.0749 C.ar    1  UNL1        0.1315
     25 C         138.2516  139.8573  166.1085 C.ar    1  UNL1        0.0301
     26 C         138.1749  138.3595  166.0773 C.ar    1  UNL1       -0.0179
     27 C         137.3707  137.6280  167.1108 C.3     1  UNL1        0.0312
     28 C         138.9024  137.5934  165.0125 C.ar    1  UNL1        0.0106
     29 C         139.7065  138.3249  163.9790 C.ar    1  UNL1        0.0605
     30 C         140.4340  137.5587  162.9143 C.3     1  UNL1        0.0521
     31 N         139.7832  139.8225  164.0102 N.ar    1  UNL1       -0.2349
@<TRIPOS>BOND
     1    20    21    1
     2    21    19    1
     3    19    15    1
     4    15    16    1
     5    15    14    1
     6    14    12    1
     7    12     1    1
     8     1     2   ar
     9     2     3   ar
    10     3     4   ar
    11     4     7    1
    12     7     8   am
    13     7     9    2
    14     4     5   ar
    15     5    22    1
    16    22    24    1
    17    24    25   ar
    18    25    26   ar
    19    26    27    1
    20    26    28   ar
    21    28    29   ar
    22    29    30    1
    23    29    31   ar
    24     5     6   ar
    25     6     1   ar
    26    31    24   ar
    27    16    17    1
    28    16    18    1
    29    12    13    1
    30     8    10    1
    31     8    11    1
    32    22    23    1
@<TRIPOS>MOLECULE
*****
 31 32 0 0 0
SMALL
GASTEIGER

@<TRIPOS>ATOM
      1 C         137.9841  142.7852  162.5038 C.ar    1  UNL1        0.0654
      2 C         138.0840  141.9479  161.2633 C.ar    1  UNL1        0.1133
      3 N         138.2493  140.4611  161.3733 N.ar    1  UNL1       -0.2367
      4 C         138.3147  139.8116  162.7238 C.ar    1  UNL1        0.1476
      5 C         138.2148  140.6489  163.9643 C.ar    1  UNL1        0.0730
      6 C         138.0495  142.1357  163.8543 C.ar    1  UNL1        0.0322
      7 C         138.4800  138.3248  162.8338 C.2     1  UNL1        0.2617
      8 N         137.7728  137.4182  161.8705 N.am    1  UNL1       -0.3240
      9 O         139.3525  137.7445  163.9071 O.2     1  UNL1       -0.2687
     10 H         137.2001  137.7991  161.1660 H       1  UNL1        0.1453
     11 H         137.8813  136.4424  161.9427 H       1  UNL1        0.1453
     12 N         137.8188  144.2720  162.3938 N.pl3   1  UNL1       -0.3303
     13 H         137.0760  144.6471  161.8676 H       1  UNL1        0.1469
     14 C         138.7851  145.1873  163.0855 C.3     1  UNL1        0.1053
     15 C         140.0382  145.6225  162.3854 C.3     1  UNL1        0.1006
     16 N         141.2935  145.8582  163.1719 N.3     1  UNL1       -0.3188
     17 H         142.0411  146.1466  162.5407 H       1  UNL1        0.1189
     18 H         141.5634  144.9973  163.6476 H       1  UNL1        0.1189
     19 C         140.0360  145.8221  160.8987 C.3     1  UNL1        0.1593
     20 C         140.1635  144.6808  158.5682 C.3     1  UNL1        0.1742
     21 O         139.6840  144.6822  159.9895 O.3     1  UNL1       -0.3496
     22 N         138.2802  139.9994  165.3149 N.pl3   1  UNL1       -0.2966
     23 H         137.5481  139.4138  165.6154 H       1  UNL1        0.1537
     24 C         139.4610  140.2422  166.2074 C.ar    1  UNL1        0.1315
     25 C         139.3552  139.9771  167.6800 C.ar    1  UNL1        0.0301
     26 C         140.5361  140.2199  168.5726 C.ar    1  UNL1       -0.0179
     27 C         140.4302  139.9548  170.0452 C.3     1  UNL1        0.0312
     28 C         141.8227  140.7278  167.9926 C.ar    1  UNL1        0.0106
     29 C         141.9286  140.9930  166.5200 C.ar    1  UNL1        0.0605
     30 C         143.2152  141.5009  165.9399 C.3     1  UNL1        0.0521
     31 N         140.7478  140.7502  165.6274 N.ar    1  UNL1       -0.2349
@<TRIPOS>BOND
     1    20    21    1
     2    21    19    1
     3    19    15    1
     4    15    16    1
     5    15    14    1
     6    14    12    1
     7    12     1    1
     8     1     2   ar
     9     2     3   ar
    10     3     4   ar
    11     4     7    1
    12     7     8   am
    13     7     9    2
    14     4     5   ar
    15     5    22    1
    16    22    24    1
    17    24    25   ar
    18    25    26   ar
    19    26    27    1
    20    26    28   ar
    21    28    29   ar
    22    29    30    1
    23    29    31   ar
    24     5     6   ar
    25     6     1   ar
    26    31    24   ar
    27    16    17    1
    28    16    18    1
    29    12    13    1
    30     8    10    1
    31     8    11    1
    32    22    23    1
@<TRIPOS>MOLECULE
*****
 31 32 0 0 0
SMALL
GASTEIGER

@<TRIPOS>ATOM
      1 C         138.8060  139.1601  165.4043 C.ar    1  UNL1        0.0654
      2 C         137.9395  138.7158  166.5451 C.ar    1  UNL1        0.1133
      3 N         138.2900  139.1075  167.9500 N.ar    1  UNL1       -0.2367
      4 C         139.5071  139.9434  168.2140 C.ar    1  UNL1        0.1476
      5 C         140.3737  140.3877  167.0732 C.ar    1  UNL1        0.0730
      6 C         140.0231  139.9960  165.6683 C.ar    1  UNL1        0.0322
      7 C         139.8577  140.3351  169.6189 C.2     1  UNL1        0.2617
      8 N         140.7955  139.4842  170.4229 N.am    1  UNL1       -0.3240
      9 O         139.2705  141.5777  170.2198 O.2     1  UNL1       -0.2687
     10 H         141.1809  138.6686  170.0285 H       1  UNL1        0.1453
     11 H         141.0255  139.7412  171.3450 H       1  UNL1        0.1453
     12 N         138.4555  138.7684  163.9994 N.pl3   1  UNL1       -0.3303
     13 H         138.0689  137.8814  163.8175 H       1  UNL1        0.1469
     14 C         138.6938  139.7281  162.8715 C.3     1  UNL1        0.1053
     15 C         138.1328  141.1177  162.9379 C.3     1  UNL1        0.1006
     16 N         136.6496  141.3244  163.0235 N.3     1  UNL1       -0.3188
     17 H         136.4471  142.3234  163.0603 H       1  UNL1        0.1189
     18 H         136.2915  140.8736  163.8655 H       1  UNL1        0.1189
     19 C         139.0550  142.3006  162.9188 C.3     1  UNL1        0.1593
     20 C         138.2749  144.3007  164.3819 C.3     1  UNL1        0.1742
     21 O         138.4971  143.6885  163.0307 O.3     1  UNL1       -0.3496
     22 N         141.5909  141.2237  167.3371 N.pl3   1  UNL1       -0.2966
     23 H         141.9217  141.3346  168.2577 H       1  UNL1        0.1537
     24 C         142.3040  141.8907  166.1985 C.ar    1  UNL1        0.1315
     25 C         141.7409  143.1408  165.5901 C.ar    1  UNL1        0.0301
     26 C         142.4541  143.8078  164.4514 C.ar    1  UNL1       -0.0179
     27 C         141.8910  145.0579  163.8430 C.3     1  UNL1        0.0312
     28 C         143.7303  143.2247  163.9212 C.ar    1  UNL1        0.0106
     29 C         144.2934  141.9746  164.5296 C.ar    1  UNL1        0.0605
     30 C         145.5697  141.3915  163.9994 C.3     1  UNL1        0.0521
     31 N         143.5803  141.3076  165.6682 N.ar    1  UNL1       -0.2349
@<TRIPOS>BOND
     1    20    21    1
     2    21    19    1
     3    19    15    1
     4    15    16    1
     5    15    14    1
     6    14    12    1
     7    12     1    1
     8     1     2   ar
     9     2     3   ar
    10     3     4   ar
    11     4     7    1
    12     7     8   am
    13     7     9    2
    14     4     5   ar
    15     5    22    1
    16    22    24    1
    17    24    25   ar
    18    25    26   ar
    19    26    27    1
    20    26    28   ar
    21    28    29   ar
    22    29    30    1
    23    29    31   ar
    24     5     6   ar
    25     6     1   ar
    26    31    24   ar
    27    16    17    1
    28    16    18    1
    29    12    13    1
    30     8    10    1
    31     8    11    1
    32    22    23    1
@<TRIPOS>MOLECULE
*****
 31 32 0 0 0
SMALL
GASTEIGER

@<TRIPOS>ATOM
      1 C         142.5948  140.1008  167.0117 C.ar    1  UNL1        0.0654
      2 C         143.2533  138.9194  166.3631 C.ar    1  UNL1        0.1133
      3 N         144.0234  139.0964  165.0881 N.ar    1  UNL1       -0.2367
      4 C         144.1349  140.4547  164.4616 C.ar    1  UNL1        0.1476
      5 C         143.4764  141.6361  165.1102 C.ar    1  UNL1        0.0730
      6 C         142.7063  141.4591  166.3852 C.ar    1  UNL1        0.0322
      7 C         144.9050  140.6317  163.1866 C.2     1  UNL1        0.2617
      8 N         144.5954  139.7710  161.9978 N.am    1  UNL1       -0.3240
      9 O         145.9847  141.6694  163.1004 O.2     1  UNL1       -0.2687
     10 H         143.8867  139.0900  162.0544 H       1  UNL1        0.1453
     11 H         145.1008  139.8872  161.1610 H       1  UNL1        0.1453
     12 N         141.8247  139.9238  168.2867 N.pl3   1  UNL1       -0.3303
     13 H         140.8451  139.8295  168.2610 H       1  UNL1        0.1469
     14 C         142.5472  139.8904  169.6008 C.3     1  UNL1        0.1053
     15 C         142.4530  141.0575  170.5383 C.3     1  UNL1        0.1006
     16 N         142.0121  140.8467  171.9564 N.3     1  UNL1       -0.3188
     17 H         142.0056  141.7409  172.4470 H       1  UNL1        0.1189
     18 H         142.6573  140.2083  172.4217 H       1  UNL1        0.1189
     19 C         142.7998  142.4355  170.0577 C.3     1  UNL1        0.1593
     20 C         140.5271  143.6668  169.7956 C.3     1  UNL1        0.1742
     21 O         141.9035  143.5923  170.3871 O.3     1  UNL1       -0.3496
     22 N         143.5879  142.9945  164.4838 N.pl3   1  UNL1       -0.2966
     23 H         144.4612  143.4470  164.4419 H       1  UNL1        0.1537
     24 C         142.3688  143.6633  163.9212 C.ar    1  UNL1        0.1315
     25 C         142.3349  144.0693  162.4776 C.ar    1  UNL1        0.0301
     26 C         141.1158  144.7382  161.9151 C.ar    1  UNL1       -0.0179
     27 C         141.0819  145.1442  160.4715 C.3     1  UNL1        0.0312
     28 C         139.9306  145.0010  162.7961 C.ar    1  UNL1        0.0106
     29 C         139.9645  144.5950  164.2397 C.ar    1  UNL1        0.0605
     30 C         138.7794  144.8578  165.1208 C.3     1  UNL1        0.0521
     31 N         141.1836  143.9262  164.8023 N.ar    1  UNL1       -0.2349
@<TRIPOS>BOND
     1    20    21    1
     2    21    19    1
     3    19    15    1
     4    15    16    1
     5    15    14    1
     6    14    12    1
     7    12     1    1
     8     1     2   ar
     9     2     3   ar
    10     3     4   ar
    11     4     7    1
    12     7     8   am
    13     7     9    2
    14     4     5   ar
    15     5    22    1
    16    22    24    1
    17    24    25   ar
    18    25    26   ar
    19    26    27    1
    20    26    28   ar
    21    28    29   ar
    22    29    30    1
    23    29    31   ar
    24     5     6   ar
    25     6     1   ar
    26    31    24   ar
    27    16    17    1
    28    16    18    1
    29    12    13    1
    30     8    10    1
    31     8    11    1
    32    22    23    1
@<TRIPOS>MOLECULE
*****
 31 32 0 0 0
SMALL
GASTEIGER

@<TRIPOS>ATOM
      1 C         139.0041  139.5286  167.4880 C.ar    1  UNL1        0.0654
      2 C         138.0742  138.5901  166.7779 C.ar    1  UNL1        0.1133
      3 N         138.2532  138.3225  165.3129 N.ar    1  UNL1       -0.2367
      4 C         139.3622  138.9934  164.5580 C.ar    1  UNL1        0.1476
      5 C         140.2921  139.9319  165.2680 C.ar    1  UNL1        0.0730
      6 C         140.1131  140.1995  166.7331 C.ar    1  UNL1        0.0322
      7 C         139.5412  138.7257  163.0929 C.2     1  UNL1        0.2617
      8 N         138.3672  138.8210  162.1642 N.am    1  UNL1       -0.3240
      9 O         140.8942  138.3628  162.5567 O.2     1  UNL1       -0.2687
     10 H         137.4791  139.0592  162.5161 H       1  UNL1        0.1453
     11 H         138.4847  138.6453  161.2026 H       1  UNL1        0.1453
     12 N         138.8251  139.7963  168.9531 N.pl3   1  UNL1       -0.3303
     13 H         138.1289  139.3184  169.4593 H       1  UNL1        0.1469
     14 C         139.7068  140.7919  169.6468 C.3     1  UNL1        0.1053
     15 C         140.8054  140.3185  170.5518 C.3     1  UNL1        0.1006
     16 N         140.7102  140.5487  172.0309 N.3     1  UNL1       -0.3188
     17 H         141.5372  140.1652  172.4886 H       1  UNL1        0.1189
     18 H         139.8760  140.0875  172.3938 H       1  UNL1        0.1189
     19 C         141.9991  139.6147  169.9775 C.3     1  UNL1        0.1593
     20 C         143.3996  141.7944  169.7831 C.3     1  UNL1        0.1742
     21 O         143.3307  140.3044  169.9414 O.3     1  UNL1       -0.3496
     22 N         141.4012  140.6028  164.5131 N.pl3   1  UNL1       -0.2966
     23 H         142.1841  140.0817  164.2220 H       1  UNL1        0.1537
     24 C         141.3174  142.0677  164.2017 C.ar    1  UNL1        0.1315
     25 C         142.5492  142.9209  164.2708 C.ar    1  UNL1        0.0301
     26 C         142.4654  144.3858  163.9594 C.ar    1  UNL1       -0.0179
     27 C         143.6972  145.2390  164.0285 C.3     1  UNL1        0.0312
     28 C         141.1497  144.9976  163.5788 C.ar    1  UNL1        0.0106
     29 C         139.9179  144.1445  163.5097 C.ar    1  UNL1        0.0605
     30 C         138.6023  144.7562  163.1292 C.3     1  UNL1        0.0521
     31 N         140.0017  142.6796  163.8212 N.ar    1  UNL1       -0.2349
@<TRIPOS>BOND
     1    20    21    1
     2    21    19    1
     3    19    15    1
     4    15    16    1
     5    15    14    1
     6    14    12    1
     7    12     1    1
     8     1     2   ar
     9     2     3   ar
    10     3     4   ar
    11     4     7    1
    12     7     8   am
    13     7     9    2
    14     4     5   ar
    15     5    22    1
    16    22    24    1
    17    24    25   ar
    18    25    26   ar
    19    26    27    1
    20    26    28   ar
    21    28    29   ar
    22    29    30    1
    23    29    31   ar
    24     5     6   ar
    25     6     1   ar
    26    31    24   ar
    27    16    17    1
    28    16    18    1
    29    12    13    1
    30     8    10    1
    31     8    11    1
    32    22    23    1
@<TRIPOS>MOLECULE
*****
 31 32 0 0 0
SMALL
GASTEIGER

@<TRIPOS>ATOM
      1 C         142.0325  139.5860  167.3186 C.ar    1  UNL1        0.0654
      2 C         143.0823  138.7798  166.6129 C.ar    1  UNL1        0.1133
      3 N         142.7831  138.1623  165.2791 N.ar    1  UNL1       -0.2367
      4 C         141.4342  138.3511  164.6508 C.ar    1  UNL1        0.1476
      5 C         140.3844  139.1573  165.3564 C.ar    1  UNL1        0.0730
      6 C         140.6836  139.7748  166.6903 C.ar    1  UNL1        0.0322
      7 C         141.1350  137.7336  163.3170 C.2     1  UNL1        0.2617
      8 N         142.2331  137.5518  162.3114 N.am    1  UNL1       -0.3240
      9 O         139.7378  137.2978  162.9886 O.2     1  UNL1       -0.2687
     10 H         143.1502  137.8378  162.5269 H       1  UNL1        0.1453
     11 H         142.0367  137.1465  161.4359 H       1  UNL1        0.1453
     12 N         142.3317  140.2035  168.6524 N.pl3   1  UNL1       -0.3303
     13 H         142.8332  141.0493  168.7020 H       1  UNL1        0.1469
     14 C         141.8668  139.5324  169.9108 C.3     1  UNL1        0.1053
     15 C         140.7659  140.1451  170.7248 C.3     1  UNL1        0.1006
     16 N         139.7225  139.2703  171.3541 N.3     1  UNL1       -0.3188
     17 H         139.0572  139.8494  171.8664 H       1  UNL1        0.1189
     18 H         140.1695  138.6164  171.9967 H       1  UNL1        0.1189
     19 C         140.7084  141.6326  170.9095 C.3     1  UNL1        0.1593
     20 C         140.4665  143.9966  169.8593 C.3     1  UNL1        0.1742
     21 O         140.2660  142.5123  169.7780 O.3     1  UNL1       -0.3496
     22 N         139.0354  139.3461  164.7282 N.pl3   1  UNL1       -0.2966
     23 H         138.3589  138.6337  164.7914 H       1  UNL1        0.1537
     24 C         138.7172  140.6203  164.0036 C.ar    1  UNL1        0.1315
     25 C         138.3958  141.8637  164.7787 C.ar    1  UNL1        0.0301
     26 C         138.0776  143.1380  164.0541 C.ar    1  UNL1       -0.0179
     27 C         137.7562  144.3813  164.8292 C.3     1  UNL1        0.0312
     28 C         138.0808  143.1688  162.5544 C.ar    1  UNL1        0.0106
     29 C         138.4022  141.9255  161.7793 C.ar    1  UNL1        0.0605
     30 C         138.4055  141.9564  160.2797 C.3     1  UNL1        0.0521
     31 N         138.7204  140.6512  162.5039 N.ar    1  UNL1       -0.2349
@<TRIPOS>BOND
     1    20    21    1
     2    21    19    1
     3    19    15    1
     4    15    16    1
     5    15    14    1
     6    14    12    1
     7    12     1    1
     8     1     2   ar
     9     2     3   ar
    10     3     4   ar
    11     4     7    1
    12     7     8   am
    13     7     9    2
    14     4     5   ar
    15     5    22    1
    16    22    24    1
    17    24    25   ar
    18    25    26   ar
    19    26    27    1
    20    26    28   ar
    21    28    29   ar
    22    29    30    1
    23    29    31   ar
    24     5     6   ar
    25     6     1   ar
    26    31    24   ar
    27    16    17    1
    28    16    18    1
    29    12    13    1
    30     8    10    1
    31     8    11    1
    32    22    23    1
