@<TRIPOS>MOLECULE
*****
 33 37 0 0 0
SMALL
GASTEIGER

@<TRIPOS>ATOM
      1 C         136.7458  138.7378  169.9962 C.ar    1  UNL1        0.0647
      2 C         136.7294  138.2456  168.5794 C.ar    1  UNL1        0.0190
      3 C         137.7900  138.6929  167.6176 C.ar    1  UNL1        0.0383
      4 C         138.8672  139.6324  168.0728 C.ar    1  UNL1        0.1410
      5 C         138.8837  140.1246  169.4896 C.ar    1  UNL1        0.0700
      6 C         137.8230  139.6772  170.4514 C.ar    1  UNL1        0.0217
      7 C         139.9608  141.0640  169.9448 C.2     1  UNL1        0.1795
      8 O         139.9772  141.5562  171.3617 O.2     1  UNL1       -0.2911
      9 C         141.0215  141.5114  168.9831 C.3     1  UNL1        0.1092
     10 C         141.0050  141.0192  167.5662 C.3     1  UNL1        0.1430
     11 C         142.0821  141.9587  168.0214 C.3     1  UNL1        0.0578
     12 C         143.1427  142.4060  167.0596 C.3     1  UNL1        0.0757
     13 N         143.1263  141.9138  165.6428 N.3     1  UNL1       -0.2721
     14 C         142.0491  140.9744  165.1876 C.3     1  UNL1        0.0757
     15 C         140.9885  140.5271  166.1493 C.3     1  UNL1        0.0578
     16 O         139.9278  140.0797  167.1111 O.3     1  UNL1       -0.4820
     17 N         135.6852  138.2905  170.9579 N.pl3   1  UNL1       -0.2187
     18 H         134.7349  138.4323  170.7436 H       1  UNL1        0.1734
     19 C         136.4598  136.9636  173.5347 C.3     1  UNL1        0.1996
     20 S         136.0725  137.6270  172.2463 S.O2    1  UNL1        0.0558
     21 O         135.4137  138.7341  173.0145 O.2     1  UNL1       -0.1544
     22 O         136.7313  136.5198  171.4782 O.2     1  UNL1       -0.1544
     23 C         144.1870  142.3612  164.6810 C.3     1  UNL1        0.0768
     24 C         144.1407  143.7449  164.1039 C.3     1  UNL1        0.0437
     25 C         143.1386  144.0804  163.0393 C.ar    1  UNL1       -0.0191
     26 C         143.2296  143.4284  161.6915 C.ar    1  UNL1       -0.0025
     27 C         142.2275  143.7639  160.6269 C.ar    1  UNL1        0.0238
     28 C         141.1346  144.7514  160.9102 C.ar    1  UNL1        0.1431
     29 N         140.0123  145.2764  160.0646 N.ar    1  UNL1       -0.0483
     30 O         139.2278  146.2528  160.8899 O.2     1  UNL1       -0.2415
     31 N         139.8652  146.3313  162.2454 N.ar    1  UNL1       -0.0483
     32 C         141.0437  145.4034  162.2580 C.ar    1  UNL1        0.1428
     33 C         142.0457  145.0679  163.3225 C.ar    1  UNL1        0.0199
@<TRIPOS>BOND
     1    19    20    1
     2    20    21    2
     3    20    22    2
     4    20    17    1
     5    17     1    1
     6     1     2   ar
     7     2     3   ar
     8     3     4   ar
     9     4     5   ar
    10     5     6   ar
    11     5     7    1
    12     7     8    2
    13     7     9    1
    14     9    10    1
    15    10    11    1
    16    11    12    1
    17    12    13    1
    18    13    23    1
    19    23    24    1
    20    24    25    1
    21    25    26   ar
    22    26    27   ar
    23    27    28   ar
    24    28    29   ar
    25    29    30   ar
    26    30    31   ar
    27    31    32   ar
    28    32    33   ar
    29    13    14    1
    30    14    15    1
    31    10    16    1
    32     6     1   ar
    33    15    10    1
    34    16     4    1
    35    33    25   ar
    36    32    28   ar
    37    17    18    1
@<TRIPOS>MOLECULE
*****
 33 37 0 0 0
SMALL
GASTEIGER

@<TRIPOS>ATOM
      1 C         141.8453  137.7834  156.9981 C.ar    1  UNL1        0.0647
      2 C         140.4178  138.2404  156.9410 C.ar    1  UNL1        0.0190
      3 C         139.6919  138.5925  158.2055 C.ar    1  UNL1        0.0383
      4 C         140.3935  138.4877  159.5272 C.ar    1  UNL1        0.1410
      5 C         141.8211  138.0307  159.5843 C.ar    1  UNL1        0.0700
      6 C         142.5470  137.6785  158.3197 C.ar    1  UNL1        0.0217
      7 C         142.5227  137.9258  160.9058 C.2     1  UNL1        0.1795
      8 O         143.9503  137.4688  160.9629 O.2     1  UNL1       -0.2911
      9 C         141.7968  138.2780  162.1705 C.3     1  UNL1        0.1092
     10 C         140.3693  138.7350  162.1134 C.3     1  UNL1        0.1430
     11 C         141.0709  138.6301  163.4350 C.3     1  UNL1        0.0578
     12 C         140.3450  138.9823  164.6995 C.3     1  UNL1        0.0757
     13 N         138.9175  139.4393  164.6424 N.3     1  UNL1       -0.2721
     14 C         138.2158  139.5441  163.3208 C.3     1  UNL1        0.0757
     15 C         138.9417  139.1920  162.0563 C.3     1  UNL1        0.0578
     16 O         139.6676  138.8398  160.7917 O.3     1  UNL1       -0.4820
     17 N         142.5712  137.4313  155.7336 N.pl3   1  UNL1       -0.2187
     18 H         142.5728  138.0595  154.9756 H       1  UNL1        0.1734
     19 C         144.0183  134.8125  155.5142 C.3     1  UNL1        0.1996
     20 S         143.2948  136.1218  155.6239 S.O2    1  UNL1        0.0558
     21 O         141.9814  135.4049  155.5191 O.2     1  UNL1       -0.1544
     22 O         144.6082  136.8388  155.7287 O.2     1  UNL1       -0.1544
     23 C         138.1916  139.7914  165.9070 C.3     1  UNL1        0.0768
     24 C         138.7439  139.3610  167.2335 C.3     1  UNL1        0.0437
     25 C         139.5685  140.3138  168.0474 C.ar    1  UNL1       -0.0191
     26 C         140.3024  141.4351  167.3735 C.ar    1  UNL1       -0.0025
     27 C         141.1270  142.3878  168.1873 C.ar    1  UNL1        0.0238
     28 C         141.2178  142.2192  169.6750 C.ar    1  UNL1        0.1431
     29 N         141.9472  142.9962  170.7305 N.ar    1  UNL1       -0.0483
     30 O         141.6642  142.3552  172.0568 O.2     1  UNL1       -0.2415
     31 N         140.7598  141.1819  171.8209 N.ar    1  UNL1       -0.0483
     32 C         140.4839  141.0979  170.3489 C.ar    1  UNL1        0.1428
     33 C         139.6593  140.1452  169.5351 C.ar    1  UNL1        0.0199
@<TRIPOS>BOND
     1    19    20    1
     2    20    21    2
     3    20    22    2
     4    20    17    1
     5    17     1    1
     6     1     2   ar
     7     2     3   ar
     8     3     4   ar
     9     4     5   ar
    10     5     6   ar
    11     5     7    1
    12     7     8    2
    13     7     9    1
    14     9    10    1
    15    10    11    1
    16    11    12    1
    17    12    13    1
    18    13    23    1
    19    23    24    1
    20    24    25    1
    21    25    26   ar
    22    26    27   ar
    23    27    28   ar
    24    28    29   ar
    25    29    30   ar
    26    30    31   ar
    27    31    32   ar
    28    32    33   ar
    29    13    14    1
    30    14    15    1
    31    10    16    1
    32     6     1   ar
    33    15    10    1
    34    16     4    1
    35    33    25   ar
    36    32    28   ar
    37    17    18    1
@<TRIPOS>MOLECULE
*****
 33 37 0 0 0
SMALL
GASTEIGER

@<TRIPOS>ATOM
      1 C         144.4999  142.3099  157.4065 C.ar    1  UNL1        0.0647
      2 C         144.5365  140.8507  157.7518 C.ar    1  UNL1        0.0190
      3 C         143.7103  140.3283  158.8896 C.ar    1  UNL1        0.0383
      4 C         142.8475  141.2652  159.6820 C.ar    1  UNL1        0.1410
      5 C         142.8109  142.7244  159.3367 C.ar    1  UNL1        0.0700
      6 C         143.6372  143.2468  158.1989 C.ar    1  UNL1        0.0217
      7 C         141.9481  143.6612  160.1290 C.2     1  UNL1        0.1795
      8 O         141.9116  145.1205  159.7837 O.2     1  UNL1       -0.2911
      9 C         141.1219  143.1389  161.2668 C.3     1  UNL1        0.1092
     10 C         141.1585  141.6796  161.6122 C.3     1  UNL1        0.1430
     11 C         140.2957  142.6165  162.4046 C.3     1  UNL1        0.0578
     12 C         139.4695  142.0941  163.5423 C.3     1  UNL1        0.0757
     13 N         139.5061  140.6348  163.8876 N.3     1  UNL1       -0.2721
     14 C         140.3689  139.6980  163.0953 C.3     1  UNL1        0.0757
     15 C         141.1951  140.2204  161.9575 C.3     1  UNL1        0.0578
     16 O         142.0213  140.7428  160.8197 O.3     1  UNL1       -0.4820
     17 N         145.3261  142.8323  156.2688 N.pl3   1  UNL1       -0.2187
     18 H         144.9302  143.4572  155.6192 H       1  UNL1        0.1734
     19 C         148.1851  141.9730  155.9727 C.3     1  UNL1        0.1996
     20 S         146.7557  142.4026  156.1207 S.O2    1  UNL1        0.0558
     21 O         147.0784  143.0188  157.4496 O.2     1  UNL1       -0.1544
     22 O         146.4329  141.7865  154.7918 O.2     1  UNL1       -0.1544
     23 C         138.6799  140.1125  165.0254 C.3     1  UNL1        0.0768
     24 C         139.3508  139.5710  166.2529 C.3     1  UNL1        0.0437
     25 C         139.7460  140.4993  167.3629 C.ar    1  UNL1       -0.0191
     26 C         140.2142  141.8890  167.0476 C.ar    1  UNL1       -0.0025
     27 C         140.6093  142.8173  168.1576 C.ar    1  UNL1        0.0238
     28 C         140.5362  142.3558  169.5829 C.ar    1  UNL1        0.1431
     29 N         140.8577  143.0416  170.8777 N.ar    1  UNL1       -0.0483
     30 O         140.5882  142.0758  171.9932 O.2     1  UNL1       -0.2415
     31 N         140.1001  140.7931  171.3879 N.ar    1  UNL1       -0.0483
     32 C         140.0680  140.9661  169.8983 C.ar    1  UNL1        0.1428
     33 C         139.6728  140.0379  168.7883 C.ar    1  UNL1        0.0199
@<TRIPOS>BOND
     1    19    20    1
     2    20    21    2
     3    20    22    2
     4    20    17    1
     5    17     1    1
     6     1     2   ar
     7     2     3   ar
     8     3     4   ar
     9     4     5   ar
    10     5     6   ar
    11     5     7    1
    12     7     8    2
    13     7     9    1
    14     9    10    1
    15    10    11    1
    16    11    12    1
    17    12    13    1
    18    13    23    1
    19    23    24    1
    20    24    25    1
    21    25    26   ar
    22    26    27   ar
    23    27    28   ar
    24    28    29   ar
    25    29    30   ar
    26    30    31   ar
    27    31    32   ar
    28    32    33   ar
    29    13    14    1
    30    14    15    1
    31    10    16    1
    32     6     1   ar
    33    15    10    1
    34    16     4    1
    35    33    25   ar
    36    32    28   ar
    37    17    18    1
@<TRIPOS>MOLECULE
*****
 33 37 0 0 0
SMALL
GASTEIGER

@<TRIPOS>ATOM
      1 C         140.9633  145.4079  157.1065 C.ar    1  UNL1        0.0647
      2 C         142.0434  144.3695  157.0352 C.ar    1  UNL1        0.0190
      3 C         142.5430  143.7196  158.2914 C.ar    1  UNL1        0.0383
      4 C         141.9625  144.1081  159.6189 C.ar    1  UNL1        0.1410
      5 C         140.8824  145.1465  159.6901 C.ar    1  UNL1        0.0700
      6 C         140.3828  145.7964  158.4339 C.ar    1  UNL1        0.0217
      7 C         140.3019  145.5350  161.0175 C.2     1  UNL1        0.1795
      8 O         139.2218  146.5734  161.0888 O.2     1  UNL1       -0.2911
      9 C         140.8015  144.8851  162.2738 C.3     1  UNL1        0.1092
     10 C         141.8816  143.8467  162.2025 C.3     1  UNL1        0.1430
     11 C         141.3011  144.2352  163.5299 C.3     1  UNL1        0.0578
     12 C         141.8007  143.5852  164.7861 C.3     1  UNL1        0.0757
     13 N         142.8808  142.5468  164.7148 N.3     1  UNL1       -0.2721
     14 C         143.4613  142.1583  163.3874 C.3     1  UNL1        0.0757
     15 C         142.9617  142.8082  162.1313 C.3     1  UNL1        0.0578
     16 O         142.4621  143.4582  160.8750 O.3     1  UNL1       -0.4820
     17 N         140.4636  146.0578  155.8503 N.pl3   1  UNL1       -0.2187
     18 H         141.0438  146.6785  155.3529 H       1  UNL1        0.1734
     19 C         137.6966  145.4662  154.8536 C.3     1  UNL1        0.1996
     20 S         139.0801  145.7620  155.3520 S.O2    1  UNL1        0.0558
     21 O         139.3099  144.2979  155.5831 O.2     1  UNL1       -0.1544
     22 O         138.8502  147.2261  155.1208 O.2     1  UNL1       -0.1544
     23 C         143.3805  141.8969  165.9710 C.3     1  UNL1        0.0768
     24 C         142.5494  140.8538  166.6575 C.3     1  UNL1        0.0437
     25 C         141.6160  141.2471  167.7639 C.ar    1  UNL1       -0.0191
     26 C         140.7292  140.2172  168.3987 C.ar    1  UNL1       -0.0025
     27 C         139.7958  140.6104  169.5051 C.ar    1  UNL1        0.0238
     28 C         139.7493  142.0335  169.9768 C.ar    1  UNL1        0.1431
     29 N         138.9371  142.7126  171.0394 N.ar    1  UNL1       -0.0483
     30 O         139.3220  144.1622  171.0615 O.2     1  UNL1       -0.2415
     31 N         140.3720  144.3790  170.0125 N.ar    1  UNL1       -0.0483
     32 C         140.6361  143.0634  169.3420 C.ar    1  UNL1        0.1428
     33 C         141.5694  142.6702  168.2356 C.ar    1  UNL1        0.0199
@<TRIPOS>BOND
     1    19    20    1
     2    20    21    2
     3    20    22    2
     4    20    17    1
     5    17     1    1
     6     1     2   ar
     7     2     3   ar
     8     3     4   ar
     9     4     5   ar
    10     5     6   ar
    11     5     7    1
    12     7     8    2
    13     7     9    1
    14     9    10    1
    15    10    11    1
    16    11    12    1
    17    12    13    1
    18    13    23    1
    19    23    24    1
    20    24    25    1
    21    25    26   ar
    22    26    27   ar
    23    27    28   ar
    24    28    29   ar
    25    29    30   ar
    26    30    31   ar
    27    31    32   ar
    28    32    33   ar
    29    13    14    1
    30    14    15    1
    31    10    16    1
    32     6     1   ar
    33    15    10    1
    34    16     4    1
    35    33    25   ar
    36    32    28   ar
    37    17    18    1
@<TRIPOS>MOLECULE
*****
 33 37 0 0 0
SMALL
GASTEIGER

@<TRIPOS>ATOM
      1 C         139.5915  144.1998  156.6145 C.ar    1  UNL1        0.0647
      2 C         140.2245  144.9757  157.7313 C.ar    1  UNL1        0.0190
      3 C         140.1597  144.4554  159.1367 C.ar    1  UNL1        0.0383
      4 C         139.4620  143.1593  159.4253 C.ar    1  UNL1        0.1410
      5 C         138.8290  142.3834  158.3084 C.ar    1  UNL1        0.0700
      6 C         138.8938  142.9037  156.9030 C.ar    1  UNL1        0.0217
      7 C         138.1313  141.0873  158.5970 C.2     1  UNL1        0.1795
      8 O         137.4984  140.3114  157.4801 O.2     1  UNL1       -0.2911
      9 C         138.0665  140.5670  160.0024 C.3     1  UNL1        0.1092
     10 C         138.6995  141.3429  161.1193 C.3     1  UNL1        0.1430
     11 C         138.0018  140.0468  161.4078 C.3     1  UNL1        0.0578
     12 C         137.9370  139.5266  162.8132 C.3     1  UNL1        0.0757
     13 N         138.5700  140.3025  163.9300 N.3     1  UNL1       -0.2721
     14 C         139.2677  141.5986  163.6415 C.3     1  UNL1        0.0757
     15 C         139.3324  142.1188  162.2361 C.3     1  UNL1        0.0578
     16 O         139.3972  142.6391  160.8307 O.3     1  UNL1       -0.4820
     17 N         139.6563  144.7200  155.2091 N.pl3   1  UNL1       -0.2187
     18 H         139.7751  144.0949  154.4578 H       1  UNL1        0.1734
     19 C         139.4239  147.6651  154.6876 C.3     1  UNL1        0.1996
     20 S         139.5400  146.1926  154.9483 S.O2    1  UNL1        0.0558
     21 O         141.0098  146.2568  154.6558 O.2     1  UNL1       -0.1544
     22 O         138.0703  146.1284  155.2409 O.2     1  UNL1       -0.1544
     23 C         138.5052  139.7822  165.3355 C.3     1  UNL1        0.0768
     24 C         139.7598  139.6596  166.1484 C.3     1  UNL1        0.0437
     25 C         139.9935  140.5791  167.3103 C.ar    1  UNL1       -0.0191
     26 C         140.2926  142.0293  167.0707 C.ar    1  UNL1       -0.0025
     27 C         140.5263  142.9488  168.2325 C.ar    1  UNL1        0.0238
     28 C         140.4610  142.4181  169.6339 C.ar    1  UNL1        0.1431
     29 N         140.6459  143.0797  170.9674 N.ar    1  UNL1       -0.0483
     30 O         140.4611  142.0384  172.0311 O.2     1  UNL1       -0.2415
     31 N         140.1620  140.7332  171.3551 N.ar    1  UNL1       -0.0483
     32 C         140.1619  140.9678  169.8735 C.ar    1  UNL1        0.1428
     33 C         139.9282  140.0484  168.7117 C.ar    1  UNL1        0.0199
@<TRIPOS>BOND
     1    19    20    1
     2    20    21    2
     3    20    22    2
     4    20    17    1
     5    17     1    1
     6     1     2   ar
     7     2     3   ar
     8     3     4   ar
     9     4     5   ar
    10     5     6   ar
    11     5     7    1
    12     7     8    2
    13     7     9    1
    14     9    10    1
    15    10    11    1
    16    11    12    1
    17    12    13    1
    18    13    23    1
    19    23    24    1
    20    24    25    1
    21    25    26   ar
    22    26    27   ar
    23    27    28   ar
    24    28    29   ar
    25    29    30   ar
    26    30    31   ar
    27    31    32   ar
    28    32    33   ar
    29    13    14    1
    30    14    15    1
    31    10    16    1
    32     6     1   ar
    33    15    10    1
    34    16     4    1
    35    33    25   ar
    36    32    28   ar
    37    17    18    1
@<TRIPOS>MOLECULE
*****
 33 37 0 0 0
SMALL
GASTEIGER

@<TRIPOS>ATOM
      1 C         141.5726  144.9282  157.9990 C.ar    1  UNL1        0.0647
      2 C         141.9197  143.4700  157.9416 C.ar    1  UNL1        0.0190
      3 C         141.4928  142.5532  159.0494 C.ar    1  UNL1        0.0383
      4 C         140.7188  143.0946  160.2147 C.ar    1  UNL1        0.1410
      5 C         140.3717  144.5528  160.2721 C.ar    1  UNL1        0.0700
      6 C         140.7986  145.4696  159.1642 C.ar    1  UNL1        0.0217
      7 C         139.5977  145.0942  161.4373 C.2     1  UNL1        0.1795
      8 O         139.2506  146.5523  161.4948 O.2     1  UNL1       -0.2911
      9 C         139.1708  144.1774  162.5452 C.3     1  UNL1        0.1092
     10 C         139.5179  142.7192  162.4878 C.3     1  UNL1        0.1430
     11 C         138.7440  143.2606  163.6530 C.3     1  UNL1        0.0578
     12 C         138.3171  142.3438  164.7608 C.3     1  UNL1        0.0757
     13 N         138.6642  140.8857  164.7034 N.3     1  UNL1       -0.2721
     14 C         139.4382  140.3443  163.5382 C.3     1  UNL1        0.0757
     15 C         139.8651  141.2611  162.4304 C.3     1  UNL1        0.0578
     16 O         140.2920  142.1778  161.3225 O.3     1  UNL1       -0.4820
     17 N         141.9994  145.8449  156.8912 N.pl3   1  UNL1       -0.2187
     18 H         142.6592  146.5544  157.0660 H       1  UNL1        0.1734
     19 C         140.8426  145.5166  154.1427 C.3     1  UNL1        0.1996
     20 S         141.4210  145.6808  155.5169 S.O2    1  UNL1        0.0558
     21 O         142.7119  145.0798  155.0454 O.2     1  UNL1       -0.1544
     22 O         140.1301  146.2818  155.9884 O.2     1  UNL1       -0.1544
     23 C         138.2373  139.9689  165.8113 C.3     1  UNL1        0.0768
     24 C         139.2608  139.3924  166.7441 C.3     1  UNL1        0.0437
     25 C         139.9854  140.2856  167.7071 C.ar    1  UNL1       -0.0191
     26 C         140.9138  141.3459  167.1934 C.ar    1  UNL1       -0.0025
     27 C         141.6384  142.2390  168.1562 C.ar    1  UNL1        0.0238
     28 C         141.4346  142.0719  169.6329 C.ar    1  UNL1        0.1431
     29 N         142.0075  142.7981  170.8137 N.ar    1  UNL1       -0.0483
     30 O         141.4332  142.1867  172.0572 O.2     1  UNL1       -0.2415
     31 N         140.5054  141.0826  171.6449 N.ar    1  UNL1       -0.0483
     32 C         140.5063  141.0116  170.1466 C.ar    1  UNL1        0.1428
     33 C         139.7817  140.1184  169.1837 C.ar    1  UNL1        0.0199
@<TRIPOS>BOND
     1    19    20    1
     2    20    21    2
     3    20    22    2
     4    20    17    1
     5    17     1    1
     6     1     2   ar
     7     2     3   ar
     8     3     4   ar
     9     4     5   ar
    10     5     6   ar
    11     5     7    1
    12     7     8    2
    13     7     9    1
    14     9    10    1
    15    10    11    1
    16    11    12    1
    17    12    13    1
    18    13    23    1
    19    23    24    1
    20    24    25    1
    21    25    26   ar
    22    26    27   ar
    23    27    28   ar
    24    28    29   ar
    25    29    30   ar
    26    30    31   ar
    27    31    32   ar
    28    32    33   ar
    29    13    14    1
    30    14    15    1
    31    10    16    1
    32     6     1   ar
    33    15    10    1
    34    16     4    1
    35    33    25   ar
    36    32    28   ar
    37    17    18    1
@<TRIPOS>MOLECULE
*****
 33 37 0 0 0
SMALL
GASTEIGER

@<TRIPOS>ATOM
      1 C         139.0510  139.8788  168.0299 C.ar    1  UNL1        0.0647
      2 C         138.1715  138.8930  167.3194 C.ar    1  UNL1        0.0190
      3 C         138.1012  138.8944  165.8211 C.ar    1  UNL1        0.0383
      4 C         138.9104  139.8815  165.0331 C.ar    1  UNL1        0.1410
      5 C         139.7899  140.8673  165.7436 C.ar    1  UNL1        0.0700
      6 C         139.8602  140.8659  167.2421 C.ar    1  UNL1        0.0217
      7 C         140.5991  141.8544  164.9558 C.2     1  UNL1        0.1795
      8 O         141.4786  142.8402  165.6663 O.2     1  UNL1       -0.2911
      9 C         140.5289  141.8558  163.4574 C.3     1  UNL1        0.1092
     10 C         139.6494  140.8701  162.7469 C.3     1  UNL1        0.1430
     11 C         140.4586  141.8572  161.9591 C.3     1  UNL1        0.0578
     12 C         140.3883  141.8586  160.4608 C.3     1  UNL1        0.0757
     13 N         139.5088  140.8729  159.7503 N.3     1  UNL1       -0.2721
     14 C         138.6996  139.8857  160.5381 C.3     1  UNL1        0.0757
     15 C         138.7699  139.8843  162.0364 C.3     1  UNL1        0.0578
     16 O         138.8402  139.8829  163.5348 O.3     1  UNL1       -0.4820
     17 N         139.1213  139.8774  169.5282 N.pl3   1  UNL1       -0.2187
     18 H         138.4599  139.3695  170.0515 H       1  UNL1        0.1734
     19 C         141.2772  141.4223  170.9302 C.3     1  UNL1        0.1996
     20 S         140.1992  140.6499  170.2292 S.O2    1  UNL1        0.0558
     21 O         141.1616  139.5247  169.9891 O.2     1  UNL1       -0.1544
     22 O         139.2368  141.7751  170.4693 O.2     1  UNL1       -0.1544
     23 C         139.4386  140.8743  158.2519 C.3     1  UNL1        0.0768
     24 C         139.2949  139.5805  157.5066 C.3     1  UNL1        0.0437
     25 C         140.5158  138.8412  157.0450 C.ar    1  UNL1       -0.0191
     26 C         140.4422  137.3680  156.7729 C.ar    1  UNL1       -0.0025
     27 C         141.6630  136.6286  156.3114 C.ar    1  UNL1        0.0238
     28 C         142.9574  137.3626  156.1220 C.ar    1  UNL1        0.1431
     29 N         144.3157  136.9044  155.6805 N.ar    1  UNL1       -0.0483
     30 O         145.2288  138.0945  155.6797 O.2     1  UNL1       -0.2415
     31 N         144.4347  139.2882  156.1208 N.ar    1  UNL1       -0.0483
     32 C         143.0309  138.8359  156.3941 C.ar    1  UNL1        0.1428
     33 C         141.8101  139.5752  156.8556 C.ar    1  UNL1        0.0199
@<TRIPOS>BOND
     1    19    20    1
     2    20    21    2
     3    20    22    2
     4    20    17    1
     5    17     1    1
     6     1     2   ar
     7     2     3   ar
     8     3     4   ar
     9     4     5   ar
    10     5     6   ar
    11     5     7    1
    12     7     8    2
    13     7     9    1
    14     9    10    1
    15    10    11    1
    16    11    12    1
    17    12    13    1
    18    13    23    1
    19    23    24    1
    20    24    25    1
    21    25    26   ar
    22    26    27   ar
    23    27    28   ar
    24    28    29   ar
    25    29    30   ar
    26    30    31   ar
    27    31    32   ar
    28    32    33   ar
    29    13    14    1
    30    14    15    1
    31    10    16    1
    32     6     1   ar
    33    15    10    1
    34    16     4    1
    35    33    25   ar
    36    32    28   ar
    37    17    18    1
@<TRIPOS>MOLECULE
*****
 33 37 0 0 0
SMALL
GASTEIGER

@<TRIPOS>ATOM
      1 C         139.1461  139.6841  168.1210 C.ar    1  UNL1        0.0647
      2 C         138.0315  139.0632  167.3323 C.ar    1  UNL1        0.0190
      3 C         138.2080  138.7959  165.8670 C.ar    1  UNL1        0.0383
      4 C         139.4991  139.1496  165.1902 C.ar    1  UNL1        0.1410
      5 C         140.6137  139.7705  165.9789 C.ar    1  UNL1        0.0700
      6 C         140.4372  140.0378  167.4444 C.ar    1  UNL1        0.0217
      7 C         141.9048  140.1242  165.3022 C.2     1  UNL1        0.1795
      8 O         143.0195  140.7451  166.0909 O.2     1  UNL1       -0.2911
      9 C         142.0814  139.8569  163.8368 C.3     1  UNL1        0.1092
     10 C         140.9667  139.2360  163.0481 C.3     1  UNL1        0.1430
     11 C         142.2578  139.5896  162.3714 C.3     1  UNL1        0.0578
     12 C         142.4343  139.3223  160.9060 C.3     1  UNL1        0.0757
     13 N         141.3197  138.7014  160.1173 N.3     1  UNL1       -0.2721
     14 C         140.0286  138.3477  160.7940 C.3     1  UNL1        0.0757
     15 C         139.8521  138.6150  162.2594 C.3     1  UNL1        0.0578
     16 O         139.6756  138.8823  163.7248 O.3     1  UNL1       -0.4820
     17 N         138.9696  139.9514  169.5864 N.pl3   1  UNL1       -0.2187
     18 H         138.1258  139.7104  170.0326 H       1  UNL1        0.1734
     19 C         141.1882  141.2201  171.1576 C.3     1  UNL1        0.1996
     20 S         140.0789  140.5858  170.3720 S.O2    1  UNL1        0.0558
     21 O         140.8056  139.2740  170.4051 O.2     1  UNL1       -0.1544
     22 O         139.3522  141.8975  170.3389 O.2     1  UNL1       -0.1544
     23 C         141.4962  138.4341  158.6519 C.3     1  UNL1        0.0768
     24 C         141.3472  139.5516  157.6624 C.3     1  UNL1        0.0437
     25 C         140.9311  140.9154  158.1283 C.ar    1  UNL1       -0.0191
     26 C         139.4774  141.2311  158.3206 C.ar    1  UNL1       -0.0025
     27 C         139.0613  142.5948  158.7864 C.ar    1  UNL1        0.0238
     28 C         140.0989  143.6428  159.0600 C.ar    1  UNL1        0.1431
     29 N         139.9909  145.0647  159.5254 N.ar    1  UNL1       -0.0483
     30 O         141.3779  145.6278  159.6208 O.2     1  UNL1       -0.2415
     31 N         142.3431  144.5540  159.2143 N.ar    1  UNL1       -0.0483
     32 C         141.5526  143.3272  158.8677 C.ar    1  UNL1        0.1428
     33 C         141.9688  141.9635  158.4018 C.ar    1  UNL1        0.0199
@<TRIPOS>BOND
     1    19    20    1
     2    20    21    2
     3    20    22    2
     4    20    17    1
     5    17     1    1
     6     1     2   ar
     7     2     3   ar
     8     3     4   ar
     9     4     5   ar
    10     5     6   ar
    11     5     7    1
    12     7     8    2
    13     7     9    1
    14     9    10    1
    15    10    11    1
    16    11    12    1
    17    12    13    1
    18    13    23    1
    19    23    24    1
    20    24    25    1
    21    25    26   ar
    22    26    27   ar
    23    27    28   ar
    24    28    29   ar
    25    29    30   ar
    26    30    31   ar
    27    31    32   ar
    28    32    33   ar
    29    13    14    1
    30    14    15    1
    31    10    16    1
    32     6     1   ar
    33    15    10    1
    34    16     4    1
    35    33    25   ar
    36    32    28   ar
    37    17    18    1
@<TRIPOS>MOLECULE
*****
 33 37 0 0 0
SMALL
GASTEIGER

@<TRIPOS>ATOM
      1 C         139.5858  139.6631  166.9531 C.ar    1  UNL1        0.0647
      2 C         138.4714  139.7976  165.9581 C.ar    1  UNL1        0.0190
      3 C         138.7355  139.5651  164.5000 C.ar    1  UNL1        0.0383
      4 C         140.1142  139.1979  164.0368 C.ar    1  UNL1        0.1410
      5 C         141.2287  139.0633  165.0318 C.ar    1  UNL1        0.0700
      6 C         140.9644  139.2959  166.4899 C.ar    1  UNL1        0.0217
      7 C         142.6073  138.6961  164.5686 C.2     1  UNL1        0.1795
      8 O         143.7217  138.5615  165.5636 O.2     1  UNL1       -0.2911
      9 C         142.8715  138.4635  163.1105 C.3     1  UNL1        0.1092
     10 C         141.7571  138.5981  162.1155 C.3     1  UNL1        0.1430
     11 C         143.1357  138.2309  161.6524 C.3     1  UNL1        0.0578
     12 C         143.3999  137.9983  160.1943 C.3     1  UNL1        0.0757
     13 N         142.2854  138.1329  159.1993 N.3     1  UNL1       -0.2721
     14 C         140.9068  138.5001  159.6625 C.3     1  UNL1        0.0757
     15 C         140.6426  138.7327  161.1206 C.3     1  UNL1        0.0578
     16 O         140.3784  138.9653  162.5787 O.3     1  UNL1       -0.4820
     17 N         139.3216  139.8956  168.4111 N.pl3   1  UNL1       -0.2187
     18 H         138.4925  139.5584  168.8211 H       1  UNL1        0.1734
     19 C         141.3197  141.3885  170.0781 C.3     1  UNL1        0.1996
     20 S         140.3207  140.6421  169.2447 S.O2    1  UNL1        0.0558
     21 O         139.9943  141.9053  168.5046 O.2     1  UNL1       -0.1544
     22 O         140.6471  139.3789  169.9847 O.2     1  UNL1       -0.1544
     23 C         142.5497  137.9003  157.7412 C.3     1  UNL1        0.0768
     24 C         141.8099  136.8211  157.0077 C.3     1  UNL1        0.0437
     25 C         142.4793  135.5073  156.7320 C.ar    1  UNL1       -0.0191
     26 C         143.3994  134.9055  157.7524 C.ar    1  UNL1       -0.0025
     27 C         144.0687  133.5918  157.4767 C.ar    1  UNL1        0.0238
     28 C         143.8180  132.8798  156.1805 C.ar    1  UNL1        0.1431
     29 N         144.3322  131.5816  155.6327 N.ar    1  UNL1       -0.0483
     30 O         143.7300  131.3809  154.2736 O.2     1  UNL1       -0.2415
     31 N         142.8435  132.5552  153.9815 N.ar    1  UNL1       -0.0483
     32 C         142.8980  133.4816  155.1600 C.ar    1  UNL1        0.1428
     33 C         142.2286  134.7953  155.4358 C.ar    1  UNL1        0.0199
@<TRIPOS>BOND
     1    19    20    1
     2    20    21    2
     3    20    22    2
     4    20    17    1
     5    17     1    1
     6     1     2   ar
     7     2     3   ar
     8     3     4   ar
     9     4     5   ar
    10     5     6   ar
    11     5     7    1
    12     7     8    2
    13     7     9    1
    14     9    10    1
    15    10    11    1
    16    11    12    1
    17    12    13    1
    18    13    23    1
    19    23    24    1
    20    24    25    1
    21    25    26   ar
    22    26    27   ar
    23    27    28   ar
    24    28    29   ar
    25    29    30   ar
    26    30    31   ar
    27    31    32   ar
    28    32    33   ar
    29    13    14    1
    30    14    15    1
    31    10    16    1
    32     6     1   ar
    33    15    10    1
    34    16     4    1
    35    33    25   ar
    36    32    28   ar
    37    17    18    1
