@<TRIPOS>MOLECULE
*****
 42 46 0 0 0
SMALL
GASTEIGER

@<TRIPOS>ATOM
      1 C         140.7427  145.1964  160.0603 C.3     1  UNL1        0.1700
      2 O         141.7458  145.9366  159.2260 O.3     1  UNL1       -0.3793
      3 H         141.8181  145.5134  158.3562 H       1  UNL1        0.2106
      4 C         140.0368  143.9986  159.4974 C.3     1  UNL1        0.2358
      5 O         140.6622  142.6396  159.6065 O.3     1  UNL1       -0.4727
      6 C         140.3605  140.1093  160.1132 C.ar    1  UNL1        0.0709
      7 C         139.6332  139.0035  160.8191 C.ar    1  UNL1        0.0355
      8 C         138.4804  139.3222  161.7242 C.ar    1  UNL1        0.1404
      9 F         137.7531  138.2164  162.4302 F       1  UNL1       -0.2042
     10 C         138.0547  140.7467  161.9235 C.ar    1  UNL1        0.0328
     11 C         138.7820  141.8525  161.2176 C.ar    1  UNL1        0.0393
     12 C         139.9349  141.5338  160.3124 C.ar    1  UNL1        0.1415
     13 O         141.3546  139.9090  157.7212 O.2     1  UNL1       -0.2912
     14 C         141.5134  139.7906  159.2080 C.2     1  UNL1        0.1764
     15 C         142.8251  139.3535  159.7898 C.3     1  UNL1        0.0739
     16 C         142.9315  139.0481  161.2544 C.3     1  UNL1        0.0345
     17 C         143.8341  139.8680  162.1280 C.ar    1  UNL1       -0.0217
     18 C         144.2351  139.3578  163.4804 C.ar    1  UNL1       -0.0043
     19 C         145.1377  140.1777  164.3538 C.ar    1  UNL1       -0.0003
     20 C         145.6393  141.5078  163.8750 C.ar    1  UNL1       -0.0000
     21 C         145.2383  142.0180  162.5227 C.ar    1  UNL1       -0.0003
     22 C         144.3357  141.1981  161.6492 C.ar    1  UNL1       -0.0043
     23 C         140.4455  145.6541  161.4575 C.3     1  UNL1        0.1056
     24 N         140.4866  144.6742  162.5924 N.3     1  UNL1       -0.2682
     25 C         139.3317  144.5809  163.5450 C.3     1  UNL1        0.0897
     26 C         139.3728  143.6010  164.6799 C.3     1  UNL1        0.0901
     27 N         140.5688  142.7143  164.8623 N.3     1  UNL1       -0.2644
     28 C         141.7237  142.8075  163.9097 C.3     1  UNL1        0.0901
     29 C         141.6826  143.7875  162.7748 C.3     1  UNL1        0.0897
     30 C         140.6099  141.7343  165.9972 C.3     1  UNL1        0.1031
     31 C         141.2235  142.1296  167.3076 C.ar    1  UNL1       -0.0036
     32 C         142.6582  141.7987  167.5941 C.ar    1  UNL1       -0.0026
     33 C         143.2718  142.1940  168.9045 C.ar    1  UNL1       -0.0003
     34 C         142.4508  142.9203  169.9284 C.ar    1  UNL1       -0.0000
     35 C         141.0161  143.2513  169.6419 C.ar    1  UNL1       -0.0003
     36 C         140.4024  142.8559  168.3314 C.ar    1  UNL1       -0.0026
     37 C         140.0374  140.3591  165.8217 C.ar    1  UNL1       -0.0036
     38 C         140.7570  139.3491  164.9778 C.ar    1  UNL1       -0.0026
     39 C         140.1844  137.9738  164.8023 C.ar    1  UNL1       -0.0003
     40 C         138.8923  137.6085  165.4707 C.ar    1  UNL1       -0.0000
     41 C         138.1726  138.6184  166.3147 C.ar    1  UNL1       -0.0003
     42 C         138.7451  139.9937  166.4901 C.ar    1  UNL1       -0.0026
@<TRIPOS>BOND
     1    13    14    2
     2    14    15    1
     3    15    16    1
     4    16    17    1
     5    17    18   ar
     6    18    19   ar
     7    19    20   ar
     8    20    21   ar
     9    21    22   ar
    10    14     6    1
    11     6     7   ar
    12     7     8   ar
    13     8     9    1
    14     8    10   ar
    15    10    11   ar
    16    11    12   ar
    17    12     5    1
    18     5     4    1
    19     4     1    1
    20     1     2    1
    21     1    23    1
    22    23    24    1
    23    24    25    1
    24    25    26    1
    25    26    27    1
    26    27    30    1
    27    30    31    1
    28    31    32   ar
    29    32    33   ar
    30    33    34   ar
    31    34    35   ar
    32    35    36   ar
    33    30    37    1
    34    37    38   ar
    35    38    39   ar
    36    39    40   ar
    37    40    41   ar
    38    41    42   ar
    39    27    28    1
    40    28    29    1
    41    22    17   ar
    42    12     6   ar
    43    29    24    1
    44    36    31   ar
    45    42    37   ar
    46     2     3    1
@<TRIPOS>MOLECULE
*****
 42 46 0 0 0
SMALL
GASTEIGER

@<TRIPOS>ATOM
      1 C         140.7278  145.1904  160.1231 C.3     1  UNL1        0.1700
      2 O         141.8710  145.8356  159.3973 O.3     1  UNL1       -0.3793
      3 H         141.9567  145.4427  158.5146 H       1  UNL1        0.2106
      4 C         139.9278  144.1121  159.4543 C.3     1  UNL1        0.2358
      5 O         140.4504  142.7066  159.4131 O.3     1  UNL1       -0.4727
      6 C         140.2104  140.2021  160.0609 C.ar    1  UNL1        0.0709
      7 C         139.5213  139.1225  160.8417 C.ar    1  UNL1        0.0355
      8 C         138.3829  139.4678  161.7554 C.ar    1  UNL1        0.1404
      9 F         137.6938  138.3883  162.5361 F       1  UNL1       -0.2042
     10 C         137.9337  140.8928  161.8884 C.ar    1  UNL1        0.0328
     11 C         138.6228  141.9724  161.1076 C.ar    1  UNL1        0.0393
     12 C         139.7612  141.6270  160.1939 C.ar    1  UNL1        0.1415
     13 O         141.1388  139.8364  157.6621 O.2     1  UNL1       -0.2912
     14 C         141.3487  139.8567  159.1472 C.2     1  UNL1        0.1764
     15 C         142.6971  139.5316  159.7186 C.3     1  UNL1        0.0739
     16 C         142.8261  139.1417  161.1613 C.3     1  UNL1        0.0345
     17 C         143.7665  139.8897  162.0592 C.ar    1  UNL1       -0.0217
     18 C         144.3096  141.2216  161.6337 C.ar    1  UNL1       -0.0043
     19 C         145.2500  141.9695  162.5316 C.ar    1  UNL1       -0.0003
     20 C         145.6474  141.3855  163.8549 C.ar    1  UNL1       -0.0000
     21 C         145.1043  140.0536  164.2803 C.ar    1  UNL1       -0.0003
     22 C         144.1639  139.3057  163.3824 C.ar    1  UNL1       -0.0043
     23 C         140.3845  145.6235  161.5175 C.3     1  UNL1        0.1056
     24 N         140.4251  144.6318  162.6423 N.3     1  UNL1       -0.2682
     25 C         141.5999  143.7108  162.7881 C.3     1  UNL1        0.0897
     26 C         141.6405  142.7192  163.9129 C.3     1  UNL1        0.0901
     27 N         140.5061  142.6485  164.8917 N.3     1  UNL1       -0.2644
     28 C         139.3312  143.5696  164.7458 C.3     1  UNL1        0.0901
     29 C         139.2907  144.5612  163.6211 C.3     1  UNL1        0.0897
     30 C         140.5466  141.6569  166.0164 C.3     1  UNL1        0.1031
     31 C         139.9913  140.2774  165.8204 C.ar    1  UNL1       -0.0036
     32 C         140.7182  139.2924  164.9535 C.ar    1  UNL1       -0.0026
     33 C         140.1628  137.9129  164.7575 C.ar    1  UNL1       -0.0003
     34 C         138.8805  137.5183  165.4283 C.ar    1  UNL1       -0.0000
     35 C         138.1536  138.5032  166.2952 C.ar    1  UNL1       -0.0003
     36 C         138.7090  139.8828  166.4913 C.ar    1  UNL1       -0.0026
     37 C         141.1425  142.0448  167.3372 C.ar    1  UNL1       -0.0036
     38 C         140.3660  142.9095  168.2854 C.ar    1  UNL1       -0.0026
     39 C         140.9619  143.2973  169.6062 C.ar    1  UNL1       -0.0003
     40 C         142.3344  142.8205  169.9787 C.ar    1  UNL1       -0.0000
     41 C         143.1110  141.9557  169.0305 C.ar    1  UNL1       -0.0003
     42 C         142.5151  141.5679  167.7097 C.ar    1  UNL1       -0.0026
@<TRIPOS>BOND
     1    13    14    2
     2    14    15    1
     3    15    16    1
     4    16    17    1
     5    17    18   ar
     6    18    19   ar
     7    19    20   ar
     8    20    21   ar
     9    21    22   ar
    10    14     6    1
    11     6     7   ar
    12     7     8   ar
    13     8     9    1
    14     8    10   ar
    15    10    11   ar
    16    11    12   ar
    17    12     5    1
    18     5     4    1
    19     4     1    1
    20     1     2    1
    21     1    23    1
    22    23    24    1
    23    24    25    1
    24    25    26    1
    25    26    27    1
    26    27    30    1
    27    30    31    1
    28    31    32   ar
    29    32    33   ar
    30    33    34   ar
    31    34    35   ar
    32    35    36   ar
    33    30    37    1
    34    37    38   ar
    35    38    39   ar
    36    39    40   ar
    37    40    41   ar
    38    41    42   ar
    39    27    28    1
    40    28    29    1
    41    22    17   ar
    42    12     6   ar
    43    29    24    1
    44    36    31   ar
    45    42    37   ar
    46     2     3    1
@<TRIPOS>MOLECULE
*****
 42 46 0 0 0
SMALL
GASTEIGER

@<TRIPOS>ATOM
      1 C         140.7050  145.2463  160.3145 C.3     1  UNL1        0.1700
      2 O         141.7702  145.8834  159.4720 O.3     1  UNL1       -0.3793
      3 H         141.8287  145.4217  158.6210 H       1  UNL1        0.2106
      4 C         139.9295  144.0768  159.7847 C.3     1  UNL1        0.2358
      5 O         140.5657  142.7196  159.7259 O.3     1  UNL1       -0.4727
      6 C         140.5742  140.3841  160.8640 C.ar    1  UNL1        0.0709
      7 C         139.8315  139.1848  161.3741 C.ar    1  UNL1        0.0355
      8 C         138.3375  139.1219  161.2561 C.ar    1  UNL1        0.1404
      9 F         137.5947  137.9226  161.7662 F       1  UNL1       -0.2042
     10 C         137.5861  140.2582  160.6281 C.ar    1  UNL1        0.0328
     11 C         138.3289  141.4574  160.1180 C.ar    1  UNL1        0.0393
     12 C         139.8230  141.5204  160.2360 C.ar    1  UNL1        0.1415
     13 O         142.7222  141.6506  161.5933 O.2     1  UNL1       -0.2912
     14 C         142.0682  140.4470  160.9819 C.2     1  UNL1        0.1764
     15 C         142.9083  139.3065  160.4884 C.3     1  UNL1        0.0739
     16 C         143.2943  138.1995  161.4242 C.3     1  UNL1        0.0345
     17 C         143.2130  138.4087  162.9074 C.ar    1  UNL1       -0.0217
     18 C         142.0857  137.8026  163.6895 C.ar    1  UNL1       -0.0043
     19 C         142.0044  138.0118  165.1726 C.ar    1  UNL1       -0.0003
     20 C         143.0505  138.8269  165.8735 C.ar    1  UNL1       -0.0000
     21 C         144.1778  139.4329  165.0914 C.ar    1  UNL1       -0.0003
     22 C         144.2591  139.2238  163.6083 C.ar    1  UNL1       -0.0043
     23 C         140.4155  145.7787  161.6865 C.3     1  UNL1        0.1056
     24 N         140.3926  144.8481  162.8627 N.3     1  UNL1       -0.2682
     25 C         139.0900  144.5060  163.5231 C.3     1  UNL1        0.0897
     26 C         139.0671  143.5754  164.6993 C.3     1  UNL1        0.0901
     27 N         140.3467  142.9869  165.2151 N.3     1  UNL1       -0.2644
     28 C         141.6493  143.3290  164.5547 C.3     1  UNL1        0.0901
     29 C         141.6722  144.2596  163.3785 C.3     1  UNL1        0.0897
     30 C         140.3238  142.0563  166.3913 C.3     1  UNL1        0.1031
     31 C         139.5598  140.7678  166.3134 C.ar    1  UNL1       -0.0036
     32 C         139.1391  140.0680  167.5718 C.ar    1  UNL1       -0.0026
     33 C         138.3752  138.7795  167.4939 C.ar    1  UNL1       -0.0003
     34 C         138.0319  138.1907  166.1577 C.ar    1  UNL1       -0.0000
     35 C         138.4525  138.8904  164.8994 C.ar    1  UNL1       -0.0003
     36 C         139.2165  140.1790  164.9772 C.ar    1  UNL1       -0.0026
     37 C         141.0648  142.4141  167.6454 C.ar    1  UNL1       -0.0036
     38 C         142.4774  141.9490  167.8405 C.ar    1  UNL1       -0.0026
     39 C         143.2185  142.3069  169.0947 C.ar    1  UNL1       -0.0003
     40 C         142.5468  143.1299  170.1536 C.ar    1  UNL1       -0.0000
     41 C         141.1342  143.5951  169.9585 C.ar    1  UNL1       -0.0003
     42 C         140.3932  143.2373  168.7045 C.ar    1  UNL1       -0.0026
@<TRIPOS>BOND
     1    13    14    2
     2    14    15    1
     3    15    16    1
     4    16    17    1
     5    17    18   ar
     6    18    19   ar
     7    19    20   ar
     8    20    21   ar
     9    21    22   ar
    10    14     6    1
    11     6     7   ar
    12     7     8   ar
    13     8     9    1
    14     8    10   ar
    15    10    11   ar
    16    11    12   ar
    17    12     5    1
    18     5     4    1
    19     4     1    1
    20     1     2    1
    21     1    23    1
    22    23    24    1
    23    24    25    1
    24    25    26    1
    25    26    27    1
    26    27    30    1
    27    30    31    1
    28    31    32   ar
    29    32    33   ar
    30    33    34   ar
    31    34    35   ar
    32    35    36   ar
    33    30    37    1
    34    37    38   ar
    35    38    39   ar
    36    39    40   ar
    37    40    41   ar
    38    41    42   ar
    39    27    28    1
    40    28    29    1
    41    22    17   ar
    42    12     6   ar
    43    29    24    1
    44    36    31   ar
    45    42    37   ar
    46     2     3    1
@<TRIPOS>MOLECULE
*****
 42 46 0 0 0
SMALL
GASTEIGER

@<TRIPOS>ATOM
      1 C         143.2163  140.5102  158.0782 C.3     1  UNL1        0.1700
      2 O         144.4651  139.7535  157.7343 O.3     1  UNL1       -0.3793
      3 H         145.1761  140.3799  157.5273 H       1  UNL1        0.2106
      4 C         143.2197  142.0101  158.0612 C.3     1  UNL1        0.2358
      5 O         143.4688  142.7739  159.3280 O.3     1  UNL1       -0.4727
      6 C         142.5277  144.0372  161.3940 C.ar    1  UNL1        0.0709
      7 C         141.3936  144.7356  162.0840 C.ar    1  UNL1        0.0355
      8 C         140.0665  144.8692  161.3979 C.ar    1  UNL1        0.1404
      9 F         138.9324  145.5676  162.0878 F       1  UNL1       -0.2042
     10 C         139.8734  144.3043  160.0217 C.ar    1  UNL1        0.0328
     11 C         141.0075  143.6059  159.3317 C.ar    1  UNL1        0.0393
     12 C         142.3347  143.4723  160.0179 C.ar    1  UNL1        0.1415
     13 O         144.4240  145.0620  162.8445 O.2     1  UNL1       -0.2912
     14 C         143.8549  143.9036  162.0801 C.2     1  UNL1        0.1764
     15 C         144.6130  142.6116  162.0019 C.3     1  UNL1        0.0739
     16 C         145.3040  142.0726  163.2192 C.3     1  UNL1        0.0345
     17 C         144.5468  141.2243  164.1976 C.ar    1  UNL1       -0.0217
     18 C         143.6819  141.8709  165.2387 C.ar    1  UNL1       -0.0043
     19 C         142.9248  141.0227  166.2170 C.ar    1  UNL1       -0.0003
     20 C         143.0325  139.5279  166.1543 C.ar    1  UNL1       -0.0000
     21 C         143.8974  138.8813  165.1133 C.ar    1  UNL1       -0.0003
     22 C         144.6546  139.7295  164.1349 C.ar    1  UNL1       -0.0043
     23 C         141.9643  139.7671  158.4389 C.3     1  UNL1        0.1056
     24 N         141.3110  139.9996  159.7690 N.3     1  UNL1       -0.2682
     25 C         139.8342  140.2511  159.8454 C.3     1  UNL1        0.0897
     26 C         139.1809  140.4836  161.1755 C.3     1  UNL1        0.0901
     27 N         140.0043  140.4646  162.4291 N.3     1  UNL1       -0.2644
     28 C         141.4811  140.2131  162.3526 C.3     1  UNL1        0.0901
     29 C         142.1344  139.9806  161.0226 C.3     1  UNL1        0.0897
     30 C         139.3510  140.6971  163.7592 C.3     1  UNL1        0.1031
     31 C         138.9355  139.5301  164.6049 C.ar    1  UNL1       -0.0036
     32 C         139.2506  138.1323  164.1611 C.ar    1  UNL1       -0.0026
     33 C         138.8352  136.9652  165.0069 C.ar    1  UNL1       -0.0003
     34 C         138.1045  137.1959  166.2964 C.ar    1  UNL1       -0.0000
     35 C         137.7893  138.5936  166.7402 C.ar    1  UNL1       -0.0003
     36 C         138.2048  139.7608  165.8945 C.ar    1  UNL1       -0.0026
     37 C         139.1131  142.0967  164.2435 C.ar    1  UNL1       -0.0036
     38 C         137.8069  142.7771  163.9588 C.ar    1  UNL1       -0.0026
     39 C         137.5691  144.1767  164.4431 C.ar    1  UNL1       -0.0003
     40 C         138.6374  144.8959  165.2122 C.ar    1  UNL1       -0.0000
     41 C         139.9436  144.2155  165.4969 C.ar    1  UNL1       -0.0003
     42 C         140.1814  142.8160  165.0125 C.ar    1  UNL1       -0.0026
@<TRIPOS>BOND
     1    13    14    2
     2    14    15    1
     3    15    16    1
     4    16    17    1
     5    17    18   ar
     6    18    19   ar
     7    19    20   ar
     8    20    21   ar
     9    21    22   ar
    10    14     6    1
    11     6     7   ar
    12     7     8   ar
    13     8     9    1
    14     8    10   ar
    15    10    11   ar
    16    11    12   ar
    17    12     5    1
    18     5     4    1
    19     4     1    1
    20     1     2    1
    21     1    23    1
    22    23    24    1
    23    24    25    1
    24    25    26    1
    25    26    27    1
    26    27    30    1
    27    30    31    1
    28    31    32   ar
    29    32    33   ar
    30    33    34   ar
    31    34    35   ar
    32    35    36   ar
    33    30    37    1
    34    37    38   ar
    35    38    39   ar
    36    39    40   ar
    37    40    41   ar
    38    41    42   ar
    39    27    28    1
    40    28    29    1
    41    22    17   ar
    42    12     6   ar
    43    29    24    1
    44    36    31   ar
    45    42    37   ar
    46     2     3    1
@<TRIPOS>MOLECULE
*****
 42 46 0 0 0
SMALL
GASTEIGER

@<TRIPOS>ATOM
      1 C         139.9598  145.9684  161.3628 C.3     1  UNL1        0.1700
      2 O         138.8995  146.9485  160.9565 O.3     1  UNL1       -0.3793
      3 H         138.6028  146.7487  160.0548 H       1  UNL1        0.2106
      4 C         140.3932  144.8943  160.4095 C.3     1  UNL1        0.2358
      5 O         139.9403  143.4795  160.6176 O.3     1  UNL1       -0.4727
      6 C         141.0090  141.7292  159.0224 C.ar    1  UNL1        0.0709
      7 C         140.8951  140.7984  157.8517 C.ar    1  UNL1        0.0355
      8 C         139.5988  140.6870  157.1054 C.ar    1  UNL1        0.1404
      9 F         139.4850  139.7562  155.9347 F       1  UNL1       -0.2042
     10 C         138.4162  141.5065  157.5298 C.ar    1  UNL1        0.0328
     11 C         138.5301  142.4373  158.7005 C.ar    1  UNL1        0.0393
     12 C         139.8265  142.5487  159.4468 C.ar    1  UNL1        0.1415
     13 O         143.2593  142.9543  159.4529 O.2     1  UNL1       -0.2912
     14 C         142.3053  141.8406  159.7687 C.2     1  UNL1        0.1764
     15 C         142.6478  140.8383  160.8310 C.3     1  UNL1        0.0739
     16 C         141.7846  140.7143  162.0514 C.3     1  UNL1        0.0345
     17 C         140.4560  140.0234  161.9633 C.ar    1  UNL1       -0.0217
     18 C         140.3585  138.6616  161.3421 C.ar    1  UNL1       -0.0043
     19 C         139.0300  137.9709  161.2540 C.ar    1  UNL1       -0.0003
     20 C         137.7989  138.6419  161.7871 C.ar    1  UNL1       -0.0000
     21 C         137.8964  140.0037  162.4083 C.ar    1  UNL1       -0.0003
     22 C         139.2249  140.6945  162.4964 C.ar    1  UNL1       -0.0043
     23 C         140.5867  146.0622  162.7222 C.3     1  UNL1        0.1056
     24 N         140.5034  144.9013  163.6683 N.3     1  UNL1       -0.2682
     25 C         141.7515  144.1787  164.0807 C.3     1  UNL1        0.0897
     26 C         141.6682  143.0178  165.0269 C.3     1  UNL1        0.0901
     27 N         140.3368  142.5793  165.5606 N.3     1  UNL1       -0.2644
     28 C         139.0886  143.3018  165.1482 C.3     1  UNL1        0.0901
     29 C         139.1719  144.4628  164.2021 C.3     1  UNL1        0.0897
     30 C         140.2535  141.4183  166.5068 C.3     1  UNL1        0.1031
     31 C         140.3325  141.6497  167.9867 C.ar    1  UNL1       -0.0036
     32 C         140.4156  143.0478  168.5239 C.ar    1  UNL1       -0.0026
     33 C         140.4946  143.2791  170.0038 C.ar    1  UNL1       -0.0003
     34 C         140.4906  142.1124  170.9466 C.ar    1  UNL1       -0.0000
     35 C         140.4075  140.7144  170.4094 C.ar    1  UNL1       -0.0003
     36 C         140.3284  140.4830  168.9295 C.ar    1  UNL1       -0.0026
     37 C         140.0911  140.0260  165.9730 C.ar    1  UNL1       -0.0036
     38 C         138.7374  139.3798  165.9625 C.ar    1  UNL1       -0.0026
     39 C         138.5751  137.9874  165.4287 C.ar    1  UNL1       -0.0003
     40 C         139.7664  137.2412  164.9054 C.ar    1  UNL1       -0.0000
     41 C         141.1201  137.8873  164.9159 C.ar    1  UNL1       -0.0003
     42 C         141.2824  139.2797  165.4496 C.ar    1  UNL1       -0.0026
@<TRIPOS>BOND
     1    13    14    2
     2    14    15    1
     3    15    16    1
     4    16    17    1
     5    17    18   ar
     6    18    19   ar
     7    19    20   ar
     8    20    21   ar
     9    21    22   ar
    10    14     6    1
    11     6     7   ar
    12     7     8   ar
    13     8     9    1
    14     8    10   ar
    15    10    11   ar
    16    11    12   ar
    17    12     5    1
    18     5     4    1
    19     4     1    1
    20     1     2    1
    21     1    23    1
    22    23    24    1
    23    24    25    1
    24    25    26    1
    25    26    27    1
    26    27    30    1
    27    30    31    1
    28    31    32   ar
    29    32    33   ar
    30    33    34   ar
    31    34    35   ar
    32    35    36   ar
    33    30    37    1
    34    37    38   ar
    35    38    39   ar
    36    39    40   ar
    37    40    41   ar
    38    41    42   ar
    39    27    28    1
    40    28    29    1
    41    22    17   ar
    42    12     6   ar
    43    29    24    1
    44    36    31   ar
    45    42    37   ar
    46     2     3    1
@<TRIPOS>MOLECULE
*****
 42 46 0 0 0
SMALL
GASTEIGER

@<TRIPOS>ATOM
      1 C         137.3572  139.5737  160.5994 C.3     1  UNL1        0.1700
      2 O         135.9827  139.5287  160.0003 O.3     1  UNL1       -0.3793
      3 H         135.9227  140.1755  159.2799 H       1  UNL1        0.2106
      4 C         138.3800  140.5287  160.0591 C.3     1  UNL1        0.2358
      5 O         138.5067  141.9032  160.6463 O.3     1  UNL1       -0.4727
      6 C         139.6997  144.2112  160.6379 C.ar    1  UNL1        0.0709
      7 C         140.4806  145.2672  159.9133 C.ar    1  UNL1        0.0355
      8 C         140.8494  145.0713  158.4727 C.ar    1  UNL1        0.1404
      9 F         141.6303  146.1274  157.7481 F       1  UNL1       -0.2042
     10 C         140.4374  143.8193  157.7565 C.ar    1  UNL1        0.0328
     11 C         139.6565  142.7633  158.4810 C.ar    1  UNL1        0.0393
     12 C         139.2876  142.9593  159.9218 C.ar    1  UNL1        0.1415
     13 O         138.0176  145.0368  162.4376 O.2     1  UNL1       -0.2912
     14 C         139.3308  144.4071  162.0785 C.2     1  UNL1        0.1764
     15 C         140.2752  143.9733  163.1602 C.3     1  UNL1        0.0739
     16 C         141.7564  144.0873  162.9528 C.3     1  UNL1        0.0345
     17 C         142.4778  143.0692  162.1202 C.ar    1  UNL1       -0.0217
     18 C         143.7934  143.4138  161.4875 C.ar    1  UNL1       -0.0043
     19 C         144.5147  142.3958  160.6549 C.ar    1  UNL1       -0.0003
     20 C         143.9204  141.0331  160.4550 C.ar    1  UNL1       -0.0000
     21 C         142.6048  140.6885  161.0877 C.ar    1  UNL1       -0.0003
     22 C         141.8835  141.7066  161.9203 C.ar    1  UNL1       -0.0043
     23 C         137.7089  138.6637  161.7388 C.3     1  UNL1        0.1056
     24 N         138.7339  139.0878  162.7485 N.3     1  UNL1       -0.2682
     25 C         138.4938  140.3014  163.5966 C.3     1  UNL1        0.0897
     26 C         139.5188  140.7255  164.6064 C.3     1  UNL1        0.0901
     27 N         140.7839  139.9360  164.7680 N.3     1  UNL1       -0.2644
     28 C         141.0240  138.7224  163.9198 C.3     1  UNL1        0.0901
     29 C         139.9990  138.2983  162.9101 C.3     1  UNL1        0.0897
     30 C         141.8088  140.3601  165.7777 C.3     1  UNL1        0.1031
     31 C         143.0658  141.0443  165.3285 C.ar    1  UNL1       -0.0036
     32 C         144.0654  140.3026  164.4913 C.ar    1  UNL1       -0.0026
     33 C         145.3224  140.9867  164.0421 C.ar    1  UNL1       -0.0003
     34 C         145.5799  142.4126  164.4301 C.ar    1  UNL1       -0.0000
     35 C         144.5805  143.1543  165.2673 C.ar    1  UNL1       -0.0003
     36 C         143.3234  142.4702  165.7165 C.ar    1  UNL1       -0.0026
     37 C         141.5768  140.1000  167.2366 C.ar    1  UNL1       -0.0036
     38 C         140.2811  140.5060  167.8740 C.ar    1  UNL1       -0.0026
     39 C         140.0491  140.2459  169.3330 C.ar    1  UNL1       -0.0003
     40 C         141.1128  139.5799  170.1545 C.ar    1  UNL1       -0.0000
     41 C         142.4085  139.1739  169.5171 C.ar    1  UNL1       -0.0003
     42 C         142.6405  139.4340  168.0582 C.ar    1  UNL1       -0.0026
@<TRIPOS>BOND
     1    13    14    2
     2    14    15    1
     3    15    16    1
     4    16    17    1
     5    17    18   ar
     6    18    19   ar
     7    19    20   ar
     8    20    21   ar
     9    21    22   ar
    10    14     6    1
    11     6     7   ar
    12     7     8   ar
    13     8     9    1
    14     8    10   ar
    15    10    11   ar
    16    11    12   ar
    17    12     5    1
    18     5     4    1
    19     4     1    1
    20     1     2    1
    21     1    23    1
    22    23    24    1
    23    24    25    1
    24    25    26    1
    25    26    27    1
    26    27    30    1
    27    30    31    1
    28    31    32   ar
    29    32    33   ar
    30    33    34   ar
    31    34    35   ar
    32    35    36   ar
    33    30    37    1
    34    37    38   ar
    35    38    39   ar
    36    39    40   ar
    37    40    41   ar
    38    41    42   ar
    39    27    28    1
    40    28    29    1
    41    22    17   ar
    42    12     6   ar
    43    29    24    1
    44    36    31   ar
    45    42    37   ar
    46     2     3    1
@<TRIPOS>MOLECULE
*****
 42 46 0 0 0
SMALL
GASTEIGER

@<TRIPOS>ATOM
      1 C         140.0906  145.8818  161.3385 C.3     1  UNL1        0.1700
      2 O         139.2244  146.8667  160.6107 O.3     1  UNL1       -0.3793
      3 H         139.1583  146.6113  159.6773 H       1  UNL1        0.2106
      4 C         140.6951  144.7250  160.5993 C.3     1  UNL1        0.2358
      5 O         142.1555  144.4182  160.7517 O.3     1  UNL1       -0.4727
      6 C         143.6500  142.3343  160.3347 C.ar    1  UNL1        0.0709
      7 C         144.3199  141.3850  159.3860 C.ar    1  UNL1        0.0355
      8 C         144.1654  141.5704  157.9056 C.ar    1  UNL1        0.1404
      9 F         144.8353  140.6211  156.9569 F       1  UNL1       -0.2042
     10 C         143.3408  142.7051  157.3738 C.ar    1  UNL1        0.0328
     11 C         142.6709  143.6543  158.3225 C.ar    1  UNL1        0.0393
     12 C         142.8255  143.4689  159.8030 C.ar    1  UNL1        0.1415
     13 O         144.6460  143.1055  162.6070 O.2     1  UNL1       -0.2912
     14 C         143.8046  142.1490  161.8152 C.2     1  UNL1        0.1764
     15 C         143.1177  141.0070  162.5038 C.3     1  UNL1        0.0739
     16 C         142.4723  139.9217  161.6942 C.3     1  UNL1        0.0345
     17 C         140.9868  139.7226  161.7556 C.ar    1  UNL1       -0.0217
     18 C         140.3839  138.4285  161.2954 C.ar    1  UNL1       -0.0043
     19 C         138.8985  138.2294  161.3568 C.ar    1  UNL1       -0.0003
     20 C         138.0160  139.3244  161.8785 C.ar    1  UNL1       -0.0000
     21 C         138.6189  140.6185  162.3388 C.ar    1  UNL1       -0.0003
     22 C         140.1043  140.8176  162.2773 C.ar    1  UNL1       -0.0043
     23 C         140.3524  146.0537  162.8054 C.3     1  UNL1        0.1056
     24 N         140.3309  144.8617  163.7159 N.3     1  UNL1       -0.2682
     25 C         139.0213  144.2883  164.1698 C.3     1  UNL1        0.0897
     26 C         138.9998  143.0963  165.0802 C.3     1  UNL1        0.0901
     27 N         140.2878  142.4779  165.5367 N.3     1  UNL1       -0.2644
     28 C         141.5974  143.0514  165.0828 C.3     1  UNL1        0.0901
     29 C         141.6189  144.2433  164.1724 C.3     1  UNL1        0.0897
     30 C         140.2663  141.2860  166.4472 C.3     1  UNL1        0.1031
     31 C         140.2166  139.9023  165.8702 C.ar    1  UNL1       -0.0036
     32 C         138.8998  139.2004  165.7172 C.ar    1  UNL1       -0.0026
     33 C         138.8501  137.8167  165.1402 C.ar    1  UNL1       -0.0003
     34 C         140.1171  137.1349  164.7163 C.ar    1  UNL1       -0.0000
     35 C         141.4339  137.8368  164.8692 C.ar    1  UNL1       -0.0003
     36 C         141.4837  139.2205  165.4462 C.ar    1  UNL1       -0.0026
     37 C         140.2946  141.4778  167.9346 C.ar    1  UNL1       -0.0036
     38 C         140.2175  140.2887  168.8457 C.ar    1  UNL1       -0.0026
     39 C         140.2457  140.4805  170.3331 C.ar    1  UNL1       -0.0003
     40 C         140.3510  141.8614  170.9094 C.ar    1  UNL1       -0.0000
     41 C         140.4281  143.0504  169.9983 C.ar    1  UNL1       -0.0003
     42 C         140.3998  142.8587  168.5109 C.ar    1  UNL1       -0.0026
@<TRIPOS>BOND
     1    13    14    2
     2    14    15    1
     3    15    16    1
     4    16    17    1
     5    17    18   ar
     6    18    19   ar
     7    19    20   ar
     8    20    21   ar
     9    21    22   ar
    10    14     6    1
    11     6     7   ar
    12     7     8   ar
    13     8     9    1
    14     8    10   ar
    15    10    11   ar
    16    11    12   ar
    17    12     5    1
    18     5     4    1
    19     4     1    1
    20     1     2    1
    21     1    23    1
    22    23    24    1
    23    24    25    1
    24    25    26    1
    25    26    27    1
    26    27    30    1
    27    30    31    1
    28    31    32   ar
    29    32    33   ar
    30    33    34   ar
    31    34    35   ar
    32    35    36   ar
    33    30    37    1
    34    37    38   ar
    35    38    39   ar
    36    39    40   ar
    37    40    41   ar
    38    41    42   ar
    39    27    28    1
    40    28    29    1
    41    22    17   ar
    42    12     6   ar
    43    29    24    1
    44    36    31   ar
    45    42    37   ar
    46     2     3    1
@<TRIPOS>MOLECULE
*****
 42 46 0 0 0
SMALL
GASTEIGER

@<TRIPOS>ATOM
      1 C         143.6262  142.9080  160.2534 C.3     1  UNL1        0.1700
      2 O         142.6672  143.9846  159.8393 O.3     1  UNL1       -0.3793
      3 H         142.3336  143.7953  158.9483 H       1  UNL1        0.2106
      4 C         143.9254  141.7712  159.3216 C.3     1  UNL1        0.2358
      5 O         142.8757  140.7380  159.0376 O.3     1  UNL1       -0.4727
      6 C         141.0868  139.2966  160.2510 C.ar    1  UNL1        0.0709
      7 C         140.7250  138.2871  161.2998 C.ar    1  UNL1        0.0355
      8 C         141.7902  137.7095  162.1840 C.ar    1  UNL1        0.1404
      9 F         141.4283  136.7000  163.2327 F       1  UNL1       -0.2042
     10 C         143.2172  138.1414  162.0193 C.ar    1  UNL1        0.0328
     11 C         143.5791  139.1509  160.9705 C.ar    1  UNL1        0.0393
     12 C         142.5138  139.7285  160.0864 C.ar    1  UNL1        0.1415
     13 O         140.2717  140.0320  157.8963 O.2     1  UNL1       -0.2912
     14 C         140.0217  139.8743  159.3669 C.2     1  UNL1        0.1764
     15 C         138.7065  140.2943  159.9534 C.3     1  UNL1        0.0739
     16 C         138.4684  141.7322  160.3081 C.3     1  UNL1        0.0345
     17 C         138.2181  142.1211  161.7351 C.ar    1  UNL1       -0.0217
     18 C         137.8960  141.0684  162.7539 C.ar    1  UNL1       -0.0043
     19 C         137.6457  141.4574  164.1808 C.ar    1  UNL1       -0.0003
     20 C         137.7174  142.8990  164.5888 C.ar    1  UNL1       -0.0000
     21 C         138.0394  143.9517  163.5699 C.ar    1  UNL1       -0.0003
     22 C         138.2898  143.5628  162.1431 C.ar    1  UNL1       -0.0043
     23 C         144.2859  142.9683  161.5991 C.3     1  UNL1        0.1056
     24 N         143.5398  142.5203  162.8209 N.3     1  UNL1       -0.2682
     25 C         144.1579  141.5203  163.7525 C.3     1  UNL1        0.0897
     26 C         143.4118  141.0724  164.9743 C.3     1  UNL1        0.0901
     27 N         142.0476  141.6243  165.2644 N.3     1  UNL1       -0.2644
     28 C         141.4295  142.6242  164.3327 C.3     1  UNL1        0.0901
     29 C         142.1756  143.0722  163.1110 C.3     1  UNL1        0.0897
     30 C         141.3015  141.1763  166.4861 C.3     1  UNL1        0.1031
     31 C         141.6082  141.7909  167.8196 C.ar    1  UNL1       -0.0036
     32 C         140.6879  142.8242  168.3987 C.ar    1  UNL1       -0.0026
     33 C         140.9945  143.4388  169.7321 C.ar    1  UNL1       -0.0003
     34 C         142.2216  143.0202  170.4866 C.ar    1  UNL1       -0.0000
     35 C         143.1419  141.9869  169.9075 C.ar    1  UNL1       -0.0003
     36 C         142.8352  141.3723  168.5740 C.ar    1  UNL1       -0.0026
     37 C         140.2487  140.1137  166.3744 C.ar    1  UNL1       -0.0036
     38 C         140.2765  139.1482  165.2268 C.ar    1  UNL1       -0.0026
     39 C         139.2236  138.0856  165.1151 C.ar    1  UNL1       -0.0003
     40 C         138.1431  137.9885  166.1510 C.ar    1  UNL1       -0.0000
     41 C         138.1154  138.9541  167.2986 C.ar    1  UNL1       -0.0003
     42 C         139.1682  140.0167  167.4103 C.ar    1  UNL1       -0.0026
@<TRIPOS>BOND
     1    13    14    2
     2    14    15    1
     3    15    16    1
     4    16    17    1
     5    17    18   ar
     6    18    19   ar
     7    19    20   ar
     8    20    21   ar
     9    21    22   ar
    10    14     6    1
    11     6     7   ar
    12     7     8   ar
    13     8     9    1
    14     8    10   ar
    15    10    11   ar
    16    11    12   ar
    17    12     5    1
    18     5     4    1
    19     4     1    1
    20     1     2    1
    21     1    23    1
    22    23    24    1
    23    24    25    1
    24    25    26    1
    25    26    27    1
    26    27    30    1
    27    30    31    1
    28    31    32   ar
    29    32    33   ar
    30    33    34   ar
    31    34    35   ar
    32    35    36   ar
    33    30    37    1
    34    37    38   ar
    35    38    39   ar
    36    39    40   ar
    37    40    41   ar
    38    41    42   ar
    39    27    28    1
    40    28    29    1
    41    22    17   ar
    42    12     6   ar
    43    29    24    1
    44    36    31   ar
    45    42    37   ar
    46     2     3    1
@<TRIPOS>MOLECULE
*****
 42 46 0 0 0
SMALL
GASTEIGER

@<TRIPOS>ATOM
      1 C         139.8859  145.5905  161.5392 C.3     1  UNL1        0.1700
      2 O         139.9749  147.0072  162.0241 O.3     1  UNL1       -0.3793
      3 H         140.5652  147.5115  161.4426 H       1  UNL1        0.2106
      4 C         140.6527  145.1647  160.3224 C.3     1  UNL1        0.2358
      5 O         141.1232  143.7465  160.1906 O.3     1  UNL1       -0.4727
      6 C         142.9759  141.9650  160.5694 C.ar    1  UNL1        0.0709
      7 C         144.2335  141.5248  161.2585 C.ar    1  UNL1        0.0355
      8 C         144.8958  142.4261  162.2580 C.ar    1  UNL1        0.1404
      9 F         146.1533  141.9860  162.9472 F       1  UNL1       -0.2042
     10 C         144.3006  143.7676  162.5684 C.ar    1  UNL1        0.0328
     11 C         143.0431  144.2077  161.8793 C.ar    1  UNL1        0.0393
     12 C         142.3807  143.3063  160.8797 C.ar    1  UNL1        0.1415
     13 O         142.4088  141.3703  158.1047 O.2     1  UNL1       -0.2912
     14 C         142.3136  141.0637  159.5699 C.2     1  UNL1        0.1764
     15 C         141.5560  139.8557  160.0357 C.3     1  UNL1        0.0739
     16 C         142.0837  139.0318  161.1726 C.3     1  UNL1        0.0345
     17 C         141.1437  138.5027  162.2150 C.ar    1  UNL1       -0.0217
     18 C         141.6849  137.8174  163.4346 C.ar    1  UNL1       -0.0043
     19 C         140.7449  137.2884  164.4769 C.ar    1  UNL1       -0.0003
     20 C         139.2636  137.4447  164.2997 C.ar    1  UNL1       -0.0000
     21 C         138.7224  138.1300  163.0801 C.ar    1  UNL1       -0.0003
     22 C         139.6624  138.6590  162.0378 C.ar    1  UNL1       -0.0043
     23 C         139.0301  144.5996  162.2712 C.3     1  UNL1        0.1056
     24 N         139.6340  143.7240  163.3288 N.3     1  UNL1       -0.2682
     25 C         140.5241  144.3208  164.3783 C.3     1  UNL1        0.0897
     26 C         141.1280  143.4452  165.4360 C.3     1  UNL1        0.0901
     27 N         140.8417  141.9728  165.4442 N.3     1  UNL1       -0.2644
     28 C         139.9516  141.3760  164.3947 C.3     1  UNL1        0.0901
     29 C         139.3477  142.2517  163.3370 C.3     1  UNL1        0.0897
     30 C         141.4456  141.0972  166.5018 C.3     1  UNL1        0.1031
     31 C         142.5875  140.1868  166.1598 C.ar    1  UNL1       -0.0036
     32 C         143.4982  140.5230  165.0162 C.ar    1  UNL1       -0.0026
     33 C         144.6402  139.6126  164.6742 C.ar    1  UNL1       -0.0003
     34 C         144.8716  138.3660  165.4757 C.ar    1  UNL1       -0.0000
     35 C         143.9610  138.0298  166.6193 C.ar    1  UNL1       -0.0003
     36 C         142.8189  138.9402  166.9613 C.ar    1  UNL1       -0.0026
     37 C         140.9075  141.1320  167.9015 C.ar    1  UNL1       -0.0036
     38 C         139.6862  140.3363  168.2555 C.ar    1  UNL1       -0.0026
     39 C         139.1481  140.3712  169.6553 C.ar    1  UNL1       -0.0003
     40 C         139.8313  141.2016  170.7010 C.ar    1  UNL1       -0.0000
     41 C         141.0526  141.9973  170.3470 C.ar    1  UNL1       -0.0003
     42 C         141.5907  141.9625  168.9473 C.ar    1  UNL1       -0.0026
@<TRIPOS>BOND
     1    13    14    2
     2    14    15    1
     3    15    16    1
     4    16    17    1
     5    17    18   ar
     6    18    19   ar
     7    19    20   ar
     8    20    21   ar
     9    21    22   ar
    10    14     6    1
    11     6     7   ar
    12     7     8   ar
    13     8     9    1
    14     8    10   ar
    15    10    11   ar
    16    11    12   ar
    17    12     5    1
    18     5     4    1
    19     4     1    1
    20     1     2    1
    21     1    23    1
    22    23    24    1
    23    24    25    1
    24    25    26    1
    25    26    27    1
    26    27    30    1
    27    30    31    1
    28    31    32   ar
    29    32    33   ar
    30    33    34   ar
    31    34    35   ar
    32    35    36   ar
    33    30    37    1
    34    37    38   ar
    35    38    39   ar
    36    39    40   ar
    37    40    41   ar
    38    41    42   ar
    39    27    28    1
    40    28    29    1
    41    22    17   ar
    42    12     6   ar
    43    29    24    1
    44    36    31   ar
    45    42    37   ar
    46     2     3    1
