@<TRIPOS>MOLECULE
*****
 25 26 0 0 0
SMALL
GASTEIGER

@<TRIPOS>ATOM
      1 C         137.6970  141.5272  162.6899 C.ar    1  UNL1        0.1327
      2 N         137.6003  141.4233  161.1967 N.ar    1  UNL1       -0.1993
      3 C         137.9010  140.1218  160.5143 C.ar    1  UNL1        0.2148
      4 N         137.8043  140.0179  159.0210 N.pl3   1  UNL1       -0.3274
      5 N         138.2984  138.9241  161.3252 N.ar    1  UNL1       -0.2139
      6 C         138.3951  139.0279  162.8186 C.ar    1  UNL1        0.0868
      7 C         138.7925  137.8303  163.6295 C.ar    1  UNL1        0.0190
      8 C         138.8892  137.9341  165.1227 C.ar    1  UNL1       -0.0027
      9 C         138.5885  139.2357  165.8050 C.ar    1  UNL1       -0.0217
     10 C         138.6852  139.3395  167.2984 C.3     1  UNL1        0.0310
     11 C         138.1911  140.4333  164.9941 C.ar    1  UNL1        0.0000
     12 C         138.0944  140.3295  163.5009 C.ar    1  UNL1        0.0489
     13 H         137.5435  140.8040  158.4888 H       1  UNL1        0.1452
     14 H         138.0017  139.1637  158.5732 H       1  UNL1        0.1452
     15 N         137.3963  142.8287  163.3722 N.pl3   1  UNL1       -0.3195
     16 H         136.5020  142.9911  163.7505 H       1  UNL1        0.1481
     17 C         138.4582  143.8828  163.4782 C.3     1  UNL1        0.0729
     18 C         138.7510  144.5219  164.8033 C.3     1  UNL1        0.0196
     19 C         139.5840  143.7964  165.8181 C.3     1  UNL1        0.0017
     20 C         141.3699  141.9780  166.3221 C.3     1  UNL1        0.0000
     21 C         140.7462  142.9587  165.3738 C.3     1  UNL1        0.0001
     22 C         139.2273  144.2979  162.2591 C.3     1  UNL1        0.0512
     23 C         140.3901  145.2364  162.3894 C.3     1  UNL1        0.1389
     24 O         140.1788  146.7154  162.2565 O.3     1  UNL1       -0.3819
     25 H         139.9039  146.9225  161.3496 H       1  UNL1        0.2104
@<TRIPOS>BOND
     1    20    21    1
     2    21    19    1
     3    19    18    1
     4    17    18    1
     5    17    22    1
     6    22    23    1
     7    23    24    1
     8    17    15    1
     9    15     1    1
    10     1     2   ar
    11     2     3   ar
    12     3     4    1
    13     3     5   ar
    14     5     6   ar
    15     6     7   ar
    16     7     8   ar
    17     8     9   ar
    18     9    10    1
    19     9    11   ar
    20    11    12   ar
    21    12     1   ar
    22    12     6   ar
    23    24    25    1
    24    15    16    1
    25     4    13    1
    26     4    14    1
@<TRIPOS>MOLECULE
*****
 25 26 0 0 0
SMALL
GASTEIGER

@<TRIPOS>ATOM
      1 C         142.6231  141.7125  167.3340 C.ar    1  UNL1        0.1327
      2 N         143.3885  142.5051  168.3518 N.ar    1  UNL1       -0.1993
      3 C         142.8536  142.6512  169.7456 C.ar    1  UNL1        0.2148
      4 N         143.6191  143.4438  170.7634 N.pl3   1  UNL1       -0.3274
      5 N         141.5534  142.0047  170.1215 N.ar    1  UNL1       -0.2139
      6 C         140.7879  141.2120  169.1037 C.ar    1  UNL1        0.0868
      7 C         139.4877  140.5655  169.4797 C.ar    1  UNL1        0.0190
      8 C         138.7223  139.7730  168.4619 C.ar    1  UNL1       -0.0027
      9 C         139.2572  139.6269  167.0681 C.ar    1  UNL1       -0.0217
     10 C         138.4917  138.8342  166.0503 C.3     1  UNL1        0.0310
     11 C         140.5574  140.2734  166.6921 C.ar    1  UNL1        0.0000
     12 C         141.3228  141.0660  167.7099 C.ar    1  UNL1        0.0489
     13 H         144.4725  143.8681  170.5166 H       1  UNL1        0.1452
     14 H         143.2681  143.5397  171.6782 H       1  UNL1        0.1452
     15 N         143.1579  141.5664  165.9402 N.pl3   1  UNL1       -0.3195
     16 H         143.6669  140.7617  165.6901 H       1  UNL1        0.1481
     17 C         142.9172  142.6464  164.9275 C.3     1  UNL1        0.0729
     18 C         141.5566  142.8139  164.3186 C.3     1  UNL1        0.0196
     19 C         140.7024  143.9858  164.7022 C.3     1  UNL1        0.0017
     20 C         138.3207  144.7588  165.3950 C.3     1  UNL1        0.0000
     21 C         139.4454  143.7711  165.4919 C.3     1  UNL1        0.0001
     22 C         144.0372  143.5590  164.5236 C.3     1  UNL1        0.0512
     23 C         144.0990  144.0968  163.1247 C.3     1  UNL1        0.1389
     24 O         143.6343  145.4936  162.8370 O.3     1  UNL1       -0.3819
     25 H         142.6788  145.5550  162.9925 H       1  UNL1        0.2104
@<TRIPOS>BOND
     1    20    21    1
     2    21    19    1
     3    19    18    1
     4    17    18    1
     5    17    22    1
     6    22    23    1
     7    23    24    1
     8    17    15    1
     9    15     1    1
    10     1     2   ar
    11     2     3   ar
    12     3     4    1
    13     3     5   ar
    14     5     6   ar
    15     6     7   ar
    16     7     8   ar
    17     8     9   ar
    18     9    10    1
    19     9    11   ar
    20    11    12   ar
    21    12     1   ar
    22    12     6   ar
    23    24    25    1
    24    15    16    1
    25     4    13    1
    26     4    14    1
@<TRIPOS>MOLECULE
*****
 25 26 0 0 0
SMALL
GASTEIGER

@<TRIPOS>ATOM
      1 C         139.4749  140.3229  167.2128 C.ar    1  UNL1        0.1327
      2 N         139.1554  139.7968  168.5807 N.ar    1  UNL1       -0.1993
      3 C         140.1186  140.0109  169.7105 C.ar    1  UNL1        0.2148
      4 N         139.7991  139.4848  171.0784 N.pl3   1  UNL1       -0.3274
      5 N         141.4013  140.7511  169.4724 N.ar    1  UNL1       -0.2139
      6 C         141.7209  141.2772  168.1044 C.ar    1  UNL1        0.0868
      7 C         143.0036  142.0174  167.8663 C.ar    1  UNL1        0.0190
      8 C         143.3231  142.5435  166.4985 C.ar    1  UNL1       -0.0027
      9 C         142.3599  142.3294  165.3687 C.ar    1  UNL1       -0.0217
     10 C         142.6794  142.8555  164.0008 C.3     1  UNL1        0.0310
     11 C         141.0772  141.5892  165.6068 C.ar    1  UNL1        0.0000
     12 C         140.7577  141.0631  166.9747 C.ar    1  UNL1        0.0489
     13 H         138.9572  138.9990  171.2346 H       1  UNL1        0.1452
     14 H         140.4313  139.6253  171.8199 H       1  UNL1        0.1452
     15 N         138.5117  140.1088  166.0830 N.pl3   1  UNL1       -0.3195
     16 H         137.6524  140.5891  166.0711 H       1  UNL1        0.1481
     17 C         138.8577  139.1630  164.9715 C.3     1  UNL1        0.0729
     18 C         139.5853  137.8862  165.2724 C.3     1  UNL1        0.0196
     19 C         140.9026  137.6007  164.6142 C.3     1  UNL1        0.0017
     20 C         143.1947  138.8026  164.3868 C.3     1  UNL1        0.0000
     21 C         142.1742  138.1010  165.2330 C.3     1  UNL1        0.0001
     22 C         138.4761  139.4938  163.5590 C.3     1  UNL1        0.0512
     23 C         138.0794  140.8946  163.1978 C.3     1  UNL1        0.1389
     24 O         136.6285  141.2690  163.1293 O.3     1  UNL1       -0.3819
     25 H         136.2044  140.7874  162.4019 H       1  UNL1        0.2104
@<TRIPOS>BOND
     1    20    21    1
     2    21    19    1
     3    19    18    1
     4    17    18    1
     5    17    22    1
     6    22    23    1
     7    23    24    1
     8    17    15    1
     9    15     1    1
    10     1     2   ar
    11     2     3   ar
    12     3     4    1
    13     3     5   ar
    14     5     6   ar
    15     6     7   ar
    16     7     8   ar
    17     8     9   ar
    18     9    10    1
    19     9    11   ar
    20    11    12   ar
    21    12     1   ar
    22    12     6   ar
    23    24    25    1
    24    15    16    1
    25     4    13    1
    26     4    14    1
@<TRIPOS>MOLECULE
*****
 25 26 0 0 0
SMALL
GASTEIGER

@<TRIPOS>ATOM
      1 C         139.7239  143.4103  164.7594 C.ar    1  UNL1        0.1327
      2 N         138.5646  143.0164  163.8930 N.ar    1  UNL1       -0.1993
      3 C         137.9373  141.6628  164.0491 C.ar    1  UNL1        0.2148
      4 N         136.7779  141.2690  163.1826 N.pl3   1  UNL1       -0.3274
      5 N         138.4695  140.7031  165.0716 N.ar    1  UNL1       -0.2139
      6 C         139.6289  141.0969  165.9381 C.ar    1  UNL1        0.0868
      7 C         140.1610  140.1371  166.9607 C.ar    1  UNL1        0.0190
      8 C         141.3204  140.5309  167.8271 C.ar    1  UNL1       -0.0027
      9 C         141.9476  141.8845  167.6710 C.ar    1  UNL1       -0.0217
     10 C         143.1070  142.2783  168.5375 C.3     1  UNL1        0.0310
     11 C         141.4155  142.8443  166.6485 C.ar    1  UNL1        0.0000
     12 C         140.2561  142.4505  165.7820 C.ar    1  UNL1        0.0489
     13 H         136.4287  141.8990  162.5114 H       1  UNL1        0.1452
     14 H         136.3662  140.3806  163.2850 H       1  UNL1        0.1452
     15 N         140.3511  144.7639  164.6033 N.pl3   1  UNL1       -0.3195
     16 H         140.0443  145.5157  165.1599 H       1  UNL1        0.1481
     17 C         141.4458  144.9719  163.5992 C.3     1  UNL1        0.0729
     18 C         142.8675  145.1096  164.0573 C.3     1  UNL1        0.0196
     19 C         143.8785  144.0641  163.6897 C.3     1  UNL1        0.0017
     20 C         144.2994  141.7068  164.6976 C.3     1  UNL1        0.0000
     21 C         144.4794  143.1948  164.7542 C.3     1  UNL1        0.0001
     22 C         141.1188  145.0424  162.1369 C.3     1  UNL1        0.0512
     23 C         139.9457  145.8514  161.6689 C.3     1  UNL1        0.1389
     24 O         138.5569  145.4709  162.0888 O.3     1  UNL1       -0.3819
     25 H         138.3262  144.6118  161.7022 H       1  UNL1        0.2104
@<TRIPOS>BOND
     1    20    21    1
     2    21    19    1
     3    19    18    1
     4    17    18    1
     5    17    22    1
     6    22    23    1
     7    23    24    1
     8    17    15    1
     9    15     1    1
    10     1     2   ar
    11     2     3   ar
    12     3     4    1
    13     3     5   ar
    14     5     6   ar
    15     6     7   ar
    16     7     8   ar
    17     8     9   ar
    18     9    10    1
    19     9    11   ar
    20    11    12   ar
    21    12     1   ar
    22    12     6   ar
    23    24    25    1
    24    15    16    1
    25     4    13    1
    26     4    14    1
@<TRIPOS>MOLECULE
*****
 25 26 0 0 0
SMALL
GASTEIGER

@<TRIPOS>ATOM
      1 C         140.1872  139.3444  164.8002 C.ar    1  UNL1        0.1327
      2 N         141.2003  139.0203  163.7425 N.ar    1  UNL1       -0.1993
      3 C         142.6504  138.8973  164.1056 C.ar    1  UNL1        0.2148
      4 N         143.6635  138.5732  163.0479 N.pl3   1  UNL1       -0.3274
      5 N         143.0876  139.0983  165.5263 N.ar    1  UNL1       -0.2139
      6 C         142.0745  139.4224  166.5841 C.ar    1  UNL1        0.0868
      7 C         142.5116  139.6234  168.0048 C.ar    1  UNL1        0.0190
      8 C         141.4985  139.9475  169.0624 C.ar    1  UNL1       -0.0027
      9 C         140.0484  140.0706  168.6993 C.ar    1  UNL1       -0.0217
     10 C         139.0353  140.3947  169.7570 C.3     1  UNL1        0.0310
     11 C         139.6112  139.8696  167.2786 C.ar    1  UNL1        0.0000
     12 C         140.6243  139.5455  166.2210 C.ar    1  UNL1        0.0489
     13 H         143.3766  138.4412  162.1154 H       1  UNL1        0.1452
     14 H         144.6153  138.4924  163.2862 H       1  UNL1        0.1452
     15 N         138.7370  139.4675  164.4371 N.pl3   1  UNL1       -0.3195
     16 H         138.0543  139.0022  164.9724 H       1  UNL1        0.1481
     17 C         138.3270  140.2996  163.2584 C.3     1  UNL1        0.0729
     18 C         138.4191  141.7952  163.3277 C.3     1  UNL1        0.0196
     19 C         137.9455  142.5198  164.5528 C.3     1  UNL1        0.0017
     20 C         138.6708  144.8685  165.3938 C.3     1  UNL1        0.0000
     21 C         137.7935  144.0119  164.5298 C.3     1  UNL1        0.0001
     22 C         137.8249  139.6362  162.0102 C.3     1  UNL1        0.0512
     23 C         137.9635  138.1521  161.8419 C.3     1  UNL1        0.1389
     24 O         139.3180  137.5121  161.9172 O.3     1  UNL1       -0.3819
     25 H         139.8590  137.8114  161.1699 H       1  UNL1        0.2104
@<TRIPOS>BOND
     1    20    21    1
     2    21    19    1
     3    19    18    1
     4    17    18    1
     5    17    22    1
     6    22    23    1
     7    23    24    1
     8    17    15    1
     9    15     1    1
    10     1     2   ar
    11     2     3   ar
    12     3     4    1
    13     3     5   ar
    14     5     6   ar
    15     6     7   ar
    16     7     8   ar
    17     8     9   ar
    18     9    10    1
    19     9    11   ar
    20    11    12   ar
    21    12     1   ar
    22    12     6   ar
    23    24    25    1
    24    15    16    1
    25     4    13    1
    26     4    14    1
@<TRIPOS>MOLECULE
*****
 25 26 0 0 0
SMALL
GASTEIGER

@<TRIPOS>ATOM
      1 C         141.4708  142.4424  164.4925 C.ar    1  UNL1        0.1327
      2 N         141.4639  143.5797  163.5146 N.ar    1  UNL1       -0.1993
      3 C         142.5727  143.7148  162.5134 C.ar    1  UNL1        0.2148
      4 N         142.5658  144.8522  161.5355 N.pl3   1  UNL1       -0.3274
      5 N         143.6884  142.7125  162.4902 N.ar    1  UNL1       -0.2139
      6 C         143.6954  141.5751  163.4682 C.ar    1  UNL1        0.0868
      7 C         144.8111  140.5729  163.4450 C.ar    1  UNL1        0.0190
      8 C         144.8180  139.4355  164.4229 C.ar    1  UNL1       -0.0027
      9 C         143.7091  139.3005  165.4240 C.ar    1  UNL1       -0.0217
     10 C         143.7161  138.1630  166.4020 C.3     1  UNL1        0.0310
     11 C         142.5934  140.3027  165.4472 C.ar    1  UNL1        0.0000
     12 C         142.5865  141.4401  164.4693 C.ar    1  UNL1        0.0489
     13 H         141.8335  145.5101  161.5507 H       1  UNL1        0.1452
     14 H         143.2935  144.9409  160.8784 H       1  UNL1        0.1452
     15 N         140.3620  142.3073  165.4936 N.pl3   1  UNL1       -0.3195
     16 H         140.5313  142.4984  166.4444 H       1  UNL1        0.1481
     17 C         138.9952  141.8812  165.0461 C.3     1  UNL1        0.0729
     18 C         138.5495  140.4627  165.2441 C.3     1  UNL1        0.0196
     19 C         139.1328  139.3685  164.4000 C.3     1  UNL1        0.0017
     20 C         140.6797  137.2812  164.3816 C.3     1  UNL1        0.0000
     21 C         139.6100  138.0996  165.0419 C.3     1  UNL1        0.0001
     22 C         138.0741  142.8736  164.4005 C.3     1  UNL1        0.0512
     23 C         138.0445  144.2936  164.8828 C.3     1  UNL1        0.1389
     24 O         139.2563  145.1639  164.7272 O.3     1  UNL1       -0.3819
     25 H         139.9749  144.8195  165.2804 H       1  UNL1        0.2104
@<TRIPOS>BOND
     1    20    21    1
     2    21    19    1
     3    19    18    1
     4    17    18    1
     5    17    22    1
     6    22    23    1
     7    23    24    1
     8    17    15    1
     9    15     1    1
    10     1     2   ar
    11     2     3   ar
    12     3     4    1
    13     3     5   ar
    14     5     6   ar
    15     6     7   ar
    16     7     8   ar
    17     8     9   ar
    18     9    10    1
    19     9    11   ar
    20    11    12   ar
    21    12     1   ar
    22    12     6   ar
    23    24    25    1
    24    15    16    1
    25     4    13    1
    26     4    14    1
@<TRIPOS>MOLECULE
*****
 25 26 0 0 0
SMALL
GASTEIGER

@<TRIPOS>ATOM
      1 C         141.8366  138.4137  164.2874 C.ar    1  UNL1        0.1327
      2 N         140.9176  137.9673  163.1891 N.ar    1  UNL1       -0.1993
      3 C         139.4322  138.0884  163.3585 C.ar    1  UNL1        0.2148
      4 N         138.5132  137.6420  162.2601 N.pl3   1  UNL1       -0.3274
      5 N         138.8656  138.6559  164.6261 N.ar    1  UNL1       -0.2139
      6 C         139.7846  139.1023  165.7245 C.ar    1  UNL1        0.0868
      7 C         139.2181  139.6698  166.9921 C.ar    1  UNL1        0.0190
      8 C         140.1370  140.1162  168.0904 C.ar    1  UNL1       -0.0027
      9 C         141.6225  139.9951  167.9210 C.ar    1  UNL1       -0.0217
     10 C         142.5415  140.4415  169.0194 C.3     1  UNL1        0.0310
     11 C         142.1890  139.4276  166.6534 C.ar    1  UNL1        0.0000
     12 C         141.2701  138.9812  165.5551 C.ar    1  UNL1        0.0489
     13 H         138.8851  137.2695  161.4281 H       1  UNL1        0.1452
     14 H         137.5382  137.7215  162.3713 H       1  UNL1        0.1452
     15 N         143.3221  138.2925  164.1180 N.pl3   1  UNL1       -0.3195
     16 H         143.7894  137.4859  164.4345 H       1  UNL1        0.1481
     17 C         144.0955  139.4004  163.4665 C.3     1  UNL1        0.0729
     18 C         145.0811  140.1987  164.2673 C.3     1  UNL1        0.0196
     19 C         145.4355  141.5938  163.8451 C.3     1  UNL1        0.0017
     20 C         143.8123  142.6062  165.6030 C.3     1  UNL1        0.0000
     21 C         144.6456  142.7582  164.3651 C.3     1  UNL1        0.0001
     22 C         143.8832  139.7099  162.0142 C.3     1  UNL1        0.0512
     23 C         143.9632  138.6132  160.9941 C.3     1  UNL1        0.1389
     24 O         143.2512  137.3146  161.2317 O.3     1  UNL1       -0.3819
     25 H         143.6511  136.8606  161.9899 H       1  UNL1        0.2104
@<TRIPOS>BOND
     1    20    21    1
     2    21    19    1
     3    19    18    1
     4    17    18    1
     5    17    22    1
     6    22    23    1
     7    23    24    1
     8    17    15    1
     9    15     1    1
    10     1     2   ar
    11     2     3   ar
    12     3     4    1
    13     3     5   ar
    14     5     6   ar
    15     6     7   ar
    16     7     8   ar
    17     8     9   ar
    18     9    10    1
    19     9    11   ar
    20    11    12   ar
    21    12     1   ar
    22    12     6   ar
    23    24    25    1
    24    15    16    1
    25     4    13    1
    26     4    14    1
@<TRIPOS>MOLECULE
*****
 25 26 0 0 0
SMALL
GASTEIGER

@<TRIPOS>ATOM
      1 C         140.8019  142.5261  167.6488 C.ar    1  UNL1        0.1327
      2 N         140.0694  143.3097  168.6973 N.ar    1  UNL1       -0.1993
      3 C         140.0165  142.8064  170.1094 C.ar    1  UNL1        0.2148
      4 N         139.2841  143.5901  171.1580 N.pl3   1  UNL1       -0.3274
      5 N         140.6961  141.5196  170.4729 N.ar    1  UNL1       -0.2139
      6 C         141.4285  140.7359  169.4243 C.ar    1  UNL1        0.0868
      7 C         142.1081  139.4490  169.7878 C.ar    1  UNL1        0.0190
      8 C         142.8405  138.6655  168.7392 C.ar    1  UNL1       -0.0027
      9 C         142.8934  139.1687  167.3272 C.ar    1  UNL1       -0.0217
     10 C         143.6258  138.3851  166.2786 C.3     1  UNL1        0.0310
     11 C         142.2138  140.4556  166.9637 C.ar    1  UNL1        0.0000
     12 C         141.4814  141.2392  168.0122 C.ar    1  UNL1        0.0489
     13 H         138.8381  144.4347  170.9194 H       1  UNL1        0.1452
     14 H         139.2493  143.2598  172.0847 H       1  UNL1        0.1452
     15 N         140.8547  143.0294  166.2367 N.pl3   1  UNL1       -0.3195
     16 H         141.6736  143.4577  165.8971 H       1  UNL1        0.1481
     17 C         139.6601  142.8802  165.3421 C.3     1  UNL1        0.0729
     18 C         138.8271  141.6343  165.4047 C.3     1  UNL1        0.0196
     19 C         139.3849  140.3334  164.9083 C.3     1  UNL1        0.0017
     20 C         138.5364  139.0657  167.0114 C.3     1  UNL1        0.0000
     21 C         139.0138  139.0495  165.5895 C.3     1  UNL1        0.0001
     22 C         139.2983  143.9768  164.3847 C.3     1  UNL1        0.0512
     23 C         137.8675  144.1803  163.9832 C.3     1  UNL1        0.1389
     24 O         137.5303  144.5459  162.5681 O.3     1  UNL1       -0.3819
     25 H         137.8816  145.4280  162.3696 H       1  UNL1        0.2104
@<TRIPOS>BOND
     1    20    21    1
     2    21    19    1
     3    19    18    1
     4    17    18    1
     5    17    22    1
     6    22    23    1
     7    23    24    1
     8    17    15    1
     9    15     1    1
    10     1     2   ar
    11     2     3   ar
    12     3     4    1
    13     3     5   ar
    14     5     6   ar
    15     6     7   ar
    16     7     8   ar
    17     8     9   ar
    18     9    10    1
    19     9    11   ar
    20    11    12   ar
    21    12     1   ar
    22    12     6   ar
    23    24    25    1
    24    15    16    1
    25     4    13    1
    26     4    14    1
@<TRIPOS>MOLECULE
*****
 25 26 0 0 0
SMALL
GASTEIGER

@<TRIPOS>ATOM
      1 C         140.3863  141.7351  165.0289 C.ar    1  UNL1        0.1327
      2 N         139.0640  142.1208  164.4352 N.ar    1  UNL1       -0.1993
      3 C         138.1715  141.0695  163.8451 C.ar    1  UNL1        0.2148
      4 N         136.8491  141.4552  163.2513 N.pl3   1  UNL1       -0.3274
      5 N         138.6014  139.6324  163.8487 N.ar    1  UNL1       -0.2139
      6 C         139.9238  139.2466  164.4425 C.ar    1  UNL1        0.0868
      7 C         140.3537  137.8096  164.4462 C.ar    1  UNL1        0.0190
      8 C         141.6760  137.4239  165.0399 C.ar    1  UNL1       -0.0027
      9 C         142.5685  138.4752  165.6300 C.ar    1  UNL1       -0.0217
     10 C         143.8909  138.0894  166.2238 C.3     1  UNL1        0.0310
     11 C         142.1386  139.9122  165.6264 C.ar    1  UNL1        0.0000
     12 C         140.8163  140.2980  165.0326 C.ar    1  UNL1        0.0489
     13 H         136.5670  142.3984  163.2489 H       1  UNL1        0.1452
     14 H         136.2634  140.7652  162.8640 H       1  UNL1        0.1452
     15 N         141.2788  142.7864  165.6191 N.pl3   1  UNL1       -0.3195
     16 H         141.0904  143.1450  166.5164 H       1  UNL1        0.1481
     17 C         142.4583  143.2913  164.8421 C.3     1  UNL1        0.0729
     18 C         143.8501  143.0253  165.3341 C.3     1  UNL1        0.0196
     19 C         144.9293  142.6469  164.3633 C.3     1  UNL1        0.0017
     20 C         144.7182  140.4651  162.9686 C.3     1  UNL1        0.0000
     21 C         145.2740  141.2026  164.1506 C.3     1  UNL1        0.0001
     22 C         142.2460  144.0624  163.5730 C.3     1  UNL1        0.0512
     23 C         141.3565  145.2701  163.5690 C.3     1  UNL1        0.1389
     24 O         139.9878  145.1954  164.1781 O.3     1  UNL1       -0.3819
     25 H         139.4370  144.5864  163.6618 H       1  UNL1        0.2104
@<TRIPOS>BOND
     1    20    21    1
     2    21    19    1
     3    19    18    1
     4    17    18    1
     5    17    22    1
     6    22    23    1
     7    23    24    1
     8    17    15    1
     9    15     1    1
    10     1     2   ar
    11     2     3   ar
    12     3     4    1
    13     3     5   ar
    14     5     6   ar
    15     6     7   ar
    16     7     8   ar
    17     8     9   ar
    18     9    10    1
    19     9    11   ar
    20    11    12   ar
    21    12     1   ar
    22    12     6   ar
    23    24    25    1
    24    15    16    1
    25     4    13    1
    26     4    14    1
