@<TRIPOS>MOLECULE
*****
 35 39 0 0 0
SMALL
GASTEIGER

@<TRIPOS>ATOM
      1 C         139.5376  139.4212  166.4099 C.3     1  UNL1        0.0545
      2 C         138.9865  139.8495  167.7376 C.3     1  UNL1        0.0162
      3 C         140.1430  140.1563  168.6422 C.3     1  UNL1        0.0095
      4 C         140.2070  140.6222  170.0667 C.3     1  UNL1        0.0005
      5 C         141.5369  140.8494  170.7224 C.3     1  UNL1        0.0000
      6 C         142.8027  140.6106  169.9538 C.3     1  UNL1        0.0005
      7 C         142.7387  140.1447  168.5294 C.3     1  UNL1        0.0087
      8 C         141.4088  139.9176  167.8737 C.3     1  UNL1        0.0704
      9 C         141.0346  139.4632  166.4940 C.3     1  UNL1        0.0243
     10 C         142.5836  139.6383  166.9837 C.2     1  UNL1        0.2250
     11 O         143.5188  138.5112  167.3078 O.2     1  UNL1       -0.2749
     12 N         142.8231  140.4862  165.7697 N.am    1  UNL1       -0.2750
     13 C         143.9978  140.2070  164.8798 C.3     1  UNL1        0.1000
     14 C         144.2374  141.0548  163.6659 C.3     1  UNL1        0.0670
     15 C         143.3021  142.1819  163.3418 C.ar    1  UNL1        0.0583
     16 N         143.5417  143.0298  162.1278 N.ar    1  UNL1       -0.2484
     17 C         142.6065  144.1569  161.8038 C.ar    1  UNL1        0.1023
     18 C         141.4317  144.4362  162.6938 C.ar    1  UNL1        0.0902
     19 C         141.1922  143.5883  163.9077 C.ar    1  UNL1        0.0040
     20 C         142.1274  142.4612  164.2317 C.ar    1  UNL1        0.0113
     21 C         141.8879  141.6133  165.4457 C.3     1  UNL1        0.1213
     22 C         140.4965  145.5633  162.3697 C.3     1  UNL1        0.4200
     23 F         139.5613  146.6904  162.0457 F       1  UNL1       -0.1658
     24 F         141.1036  145.6739  161.0025 F       1  UNL1       -0.1658
     25 F         139.8894  145.4526  163.7369 F       1  UNL1       -0.1658
     26 N         138.7329  139.0210  165.2089 N.3     1  UNL1       -0.2975
     27 H         139.2881  138.3349  164.6977 H       1  UNL1        0.1232
     28 C         138.1107  139.6829  162.7748 C.3     1  UNL1        0.1591
     29 C         137.6814  140.7203  161.7801 C.3     1  UNL1        0.1729
     30 O         137.4450  142.1332  162.2247 O.3     1  UNL1       -0.3511
     31 C         137.6379  142.5088  163.6640 C.3     1  UNL1        0.1437
     32 C         138.0672  141.4713  164.6588 C.3     1  UNL1        0.0503
     33 C         138.3036  140.0584  164.2142 C.3     1  UNL1        0.0865
     34 C         139.2451  137.9918  161.1613 C.3     1  UNL1        0.1742
     35 O         138.3471  138.2700  162.3301 O.3     1  UNL1       -0.3496
@<TRIPOS>BOND
     1    34    35    1
     2    35    28    1
     3    28    29    1
     4    29    30    1
     5    30    31    1
     6    31    32    1
     7    32    33    1
     8    33    26    1
     9     1    26    1
    10     1     2    1
    11     3     2    1
    12     3     4    1
    13     4     5    1
    14     5     6    1
    15     6     7    1
    16     7     8    1
    17     8    10    1
    18    10    11    2
    19    10    12   am
    20    12    13    1
    21    13    14    1
    22    14    15    1
    23    15    16   ar
    24    16    17   ar
    25    17    18   ar
    26    18    22    1
    27    22    23    1
    28    22    24    1
    29    22    25    1
    30    18    19   ar
    31    19    20   ar
    32    20    21    1
    33     8     9    1
    34    33    28    1
    35     9     1    1
    36     8     3    1
    37    21    12    1
    38    20    15   ar
    39    26    27    1
@<TRIPOS>MOLECULE
*****
 35 39 0 0 0
SMALL
GASTEIGER

@<TRIPOS>ATOM
      1 C         139.4675  139.8245  167.6703 C.3     1  UNL1        0.0545
      2 C         139.2319  140.6668  168.8889 C.3     1  UNL1        0.0162
      3 C         140.5566  141.2022  169.3455 C.3     1  UNL1        0.0095
      4 C         140.9390  142.0894  170.4931 C.3     1  UNL1        0.0005
      5 C         142.3758  142.4652  170.7041 C.3     1  UNL1        0.0000
      6 C         143.4301  141.9537  169.7676 C.3     1  UNL1        0.0005
      7 C         143.0477  141.0666  168.6202 C.3     1  UNL1        0.0087
      8 C         141.6109  140.6908  168.4091 C.3     1  UNL1        0.0704
      9 C         140.9378  139.8393  167.3738 C.3     1  UNL1        0.0243
     10 C         142.5497  140.1060  167.3959 C.2     1  UNL1        0.2250
     11 O         143.3718  138.9004  167.7431 O.2     1  UNL1       -0.2749
     12 N         142.6664  140.7269  166.0353 N.am    1  UNL1       -0.2750
     13 C         143.6051  140.1421  165.0221 C.3     1  UNL1        0.1000
     14 C         143.7218  140.7629  163.6616 C.3     1  UNL1        0.0670
     15 C         142.8996  141.9685  163.3144 C.ar    1  UNL1        0.0583
     16 N         143.0163  142.5894  161.9539 N.ar    1  UNL1       -0.2484
     17 C         142.1942  143.7950  161.6066 C.ar    1  UNL1        0.1023
     18 C         141.2554  144.3798  162.6200 C.ar    1  UNL1        0.0902
     19 C         141.1388  143.7590  163.9804 C.ar    1  UNL1        0.0040
     20 C         141.9609  142.5533  164.3277 C.ar    1  UNL1        0.0113
     21 C         141.8443  141.9325  165.6881 C.3     1  UNL1        0.1213
     22 C         140.4333  145.5855  162.2727 C.3     1  UNL1        0.4200
     23 F         139.6112  146.7911  161.9255 F       1  UNL1       -0.1658
     24 F         139.7428  145.4972  163.6014 F       1  UNL1       -0.1658
     25 F         141.1238  145.6737  160.9441 F       1  UNL1       -0.1658
     26 N         138.4172  139.0953  166.8860 N.3     1  UNL1       -0.2975
     27 H         138.3688  138.1501  167.2663 H       1  UNL1        0.1232
     28 C         138.4057  140.1616  164.5168 C.3     1  UNL1        0.1591
     29 C         138.5414  140.0234  163.0294 C.3     1  UNL1        0.1729
     30 O         138.8244  138.6807  162.4237 O.3     1  UNL1       -0.3511
     31 C         138.9716  137.4761  163.3053 C.3     1  UNL1        0.1437
     32 C         138.8359  137.6144  164.7928 C.3     1  UNL1        0.0503
     33 C         138.5529  138.9571  165.3986 C.3     1  UNL1        0.0865
     34 C         137.6852  142.6435  164.2502 C.3     1  UNL1        0.1742
     35 O         138.1227  141.5044  165.1225 O.3     1  UNL1       -0.3496
@<TRIPOS>BOND
     1    34    35    1
     2    35    28    1
     3    28    29    1
     4    29    30    1
     5    30    31    1
     6    31    32    1
     7    32    33    1
     8    33    26    1
     9     1    26    1
    10     1     2    1
    11     3     2    1
    12     3     4    1
    13     4     5    1
    14     5     6    1
    15     6     7    1
    16     7     8    1
    17     8    10    1
    18    10    11    2
    19    10    12   am
    20    12    13    1
    21    13    14    1
    22    14    15    1
    23    15    16   ar
    24    16    17   ar
    25    17    18   ar
    26    18    22    1
    27    22    23    1
    28    22    24    1
    29    22    25    1
    30    18    19   ar
    31    19    20   ar
    32    20    21    1
    33     8     9    1
    34    33    28    1
    35     9     1    1
    36     8     3    1
    37    21    12    1
    38    20    15   ar
    39    26    27    1
@<TRIPOS>MOLECULE
*****
 35 39 0 0 0
SMALL
GASTEIGER

@<TRIPOS>ATOM
      1 C         140.7174  137.6234  163.8678 C.3     1  UNL1        0.0545
      2 C         139.2954  137.5043  164.3302 C.3     1  UNL1        0.0162
      3 C         139.1555  138.2835  165.6043 C.3     1  UNL1        0.0095
      4 C         137.9844  138.5237  166.5104 C.3     1  UNL1        0.0005
      5 C         138.1489  139.3646  167.7417 C.3     1  UNL1        0.0000
      6 C         139.4845  139.9653  168.0667 C.3     1  UNL1        0.0005
      7 C         140.6554  139.7251  167.1606 C.3     1  UNL1        0.0087
      8 C         140.4909  138.8843  165.9293 C.3     1  UNL1        0.0704
      9 C         141.4563  138.4763  164.8562 C.3     1  UNL1        0.0243
     10 C         141.8798  139.4164  166.1236 C.2     1  UNL1        0.2250
     11 O         142.8891  138.6158  166.8920 O.2     1  UNL1       -0.2749
     12 N         142.2594  140.7493  165.5496 N.am    1  UNL1       -0.2750
     13 C         143.6483  141.2814  165.7439 C.3     1  UNL1        0.1000
     14 C         144.0279  142.6142  165.1698 C.3     1  UNL1        0.0670
     15 C         143.0186  143.4148  164.4015 C.ar    1  UNL1        0.0583
     16 N         143.3982  144.7477  163.8274 N.ar    1  UNL1       -0.2484
     17 C         142.3889  145.5483  163.0591 C.ar    1  UNL1        0.1023
     18 C         141.0000  145.0161  162.8648 C.ar    1  UNL1        0.0902
     19 C         140.6204  143.6833  163.4389 C.ar    1  UNL1        0.0040
     20 C         141.6297  142.8827  164.2072 C.ar    1  UNL1        0.0113
     21 C         141.2501  141.5499  164.7812 C.3     1  UNL1        0.1213
     22 C         139.9907  145.8167  162.0965 C.3     1  UNL1        0.4200
     23 F         138.9814  146.6173  161.3282 F       1  UNL1       -0.1658
     24 F         140.9586  145.9440  160.9577 F       1  UNL1       -0.1658
     25 F         139.0227  145.6893  163.2353 F       1  UNL1       -0.1658
     26 N         141.2985  136.9993  162.6338 N.3     1  UNL1       -0.2975
     27 H         142.0165  136.3450  162.9449 H       1  UNL1        0.1232
     28 C         141.0777  138.4729  160.5055 C.3     1  UNL1        0.1591
     29 C         141.7062  139.3371  159.4529 C.3     1  UNL1        0.1729
     30 O         143.1842  139.5918  159.4758 O.3     1  UNL1       -0.3511
     31 C         144.0337  138.9824  160.5514 C.3     1  UNL1        0.1437
     32 C         143.4051  138.1182  161.6041 C.3     1  UNL1        0.0503
     33 C         141.9271  137.8635  161.5812 C.3     1  UNL1        0.0865
     34 C         138.6543  139.2358  161.0493 C.3     1  UNL1        0.1742
     35 O         139.5996  138.2183  160.4825 O.3     1  UNL1       -0.3496
@<TRIPOS>BOND
     1    34    35    1
     2    35    28    1
     3    28    29    1
     4    29    30    1
     5    30    31    1
     6    31    32    1
     7    32    33    1
     8    33    26    1
     9     1    26    1
    10     1     2    1
    11     3     2    1
    12     3     4    1
    13     4     5    1
    14     5     6    1
    15     6     7    1
    16     7     8    1
    17     8    10    1
    18    10    11    2
    19    10    12   am
    20    12    13    1
    21    13    14    1
    22    14    15    1
    23    15    16   ar
    24    16    17   ar
    25    17    18   ar
    26    18    22    1
    27    22    23    1
    28    22    24    1
    29    22    25    1
    30    18    19   ar
    31    19    20   ar
    32    20    21    1
    33     8     9    1
    34    33    28    1
    35     9     1    1
    36     8     3    1
    37    21    12    1
    38    20    15   ar
    39    26    27    1
@<TRIPOS>MOLECULE
*****
 35 39 0 0 0
SMALL
GASTEIGER

@<TRIPOS>ATOM
      1 C         141.3177  141.1204  162.3309 C.3     1  UNL1        0.0545
      2 C         141.3676  142.5346  161.8334 C.3     1  UNL1        0.0162
      3 C         140.0998  143.2183  162.2521 C.3     1  UNL1        0.0095
      4 C         139.5967  144.6158  162.0424 C.3     1  UNL1        0.0005
      5 C         138.2600  145.0216  162.5889 C.3     1  UNL1        0.0000
      6 C         137.4265  144.0299  163.3452 C.3     1  UNL1        0.0005
      7 C         137.9297  142.6325  163.5549 C.3     1  UNL1        0.0087
      8 C         139.2663  142.2267  163.0083 C.3     1  UNL1        0.0704
      9 C         140.0190  140.9301  163.0570 C.3     1  UNL1        0.0243
     10 C         138.5484  141.1317  163.7401 C.2     1  UNL1        0.2250
     11 O         137.4770  140.3434  163.0468 O.2     1  UNL1       -0.2749
     12 N         138.9019  140.8249  165.1652 N.am    1  UNL1       -0.2750
     13 C         138.1840  139.7298  165.8970 C.3     1  UNL1        0.1000
     14 C         138.5376  139.4231  167.3221 C.3     1  UNL1        0.0670
     15 C         139.6090  140.2114  168.0154 C.ar    1  UNL1        0.0583
     16 N         139.9625  139.9046  169.4405 N.ar    1  UNL1       -0.2484
     17 C         141.0339  140.6929  170.1339 C.ar    1  UNL1        0.1023
     18 C         141.7518  141.7880  169.4020 C.ar    1  UNL1        0.0902
     19 C         141.3983  142.0947  167.9770 C.ar    1  UNL1        0.0040
     20 C         140.3269  141.3064  167.2836 C.ar    1  UNL1        0.0113
     21 C         139.9733  141.6131  165.8586 C.3     1  UNL1        0.1213
     22 C         142.8232  142.5762  170.0954 C.3     1  UNL1        0.4200
     23 F         143.8946  143.3645  170.7887 F       1  UNL1       -0.1658
     24 F         141.8924  143.7478  170.2017 F       1  UNL1       -0.1658
     25 F         143.7539  141.4047  169.9891 F       1  UNL1       -0.1658
     26 N         142.3799  140.0793  162.1365 N.3     1  UNL1       -0.2975
     27 H         141.9317  139.2822  161.6847 H       1  UNL1        0.1232
     28 C         144.5759  139.8867  163.5114 C.3     1  UNL1        0.1591
     29 C         145.3247  139.3491  164.6947 C.3     1  UNL1        0.1729
     30 O         144.6264  138.4667  165.6865 O.3     1  UNL1       -0.3511
     31 C         143.1793  138.1218  165.4950 C.3     1  UNL1        0.1437
     32 C         142.4304  138.6594  164.3115 C.3     1  UNL1        0.0503
     33 C         143.1287  139.5418  163.3198 C.3     1  UNL1        0.0865
     34 C         145.1818  142.2608  162.6475 C.3     1  UNL1        0.1742
     35 O         145.2743  140.7691  162.5197 O.3     1  UNL1       -0.3496
@<TRIPOS>BOND
     1    34    35    1
     2    35    28    1
     3    28    29    1
     4    29    30    1
     5    30    31    1
     6    31    32    1
     7    32    33    1
     8    33    26    1
     9     1    26    1
    10     1     2    1
    11     3     2    1
    12     3     4    1
    13     4     5    1
    14     5     6    1
    15     6     7    1
    16     7     8    1
    17     8    10    1
    18    10    11    2
    19    10    12   am
    20    12    13    1
    21    13    14    1
    22    14    15    1
    23    15    16   ar
    24    16    17   ar
    25    17    18   ar
    26    18    22    1
    27    22    23    1
    28    22    24    1
    29    22    25    1
    30    18    19   ar
    31    19    20   ar
    32    20    21    1
    33     8     9    1
    34    33    28    1
    35     9     1    1
    36     8     3    1
    37    21    12    1
    38    20    15   ar
    39    26    27    1
@<TRIPOS>MOLECULE
*****
 35 39 0 0 0
SMALL
GASTEIGER

@<TRIPOS>ATOM
      1 C         139.4854  138.3107  164.8417 C.3     1  UNL1        0.0545
      2 C         138.7317  138.7714  166.0540 C.3     1  UNL1        0.0162
      3 C         139.7040  139.4462  166.9756 C.3     1  UNL1        0.0095
      4 C         139.5308  140.0948  168.3170 C.3     1  UNL1        0.0005
      5 C         140.7123  140.6998  169.0157 C.3     1  UNL1        0.0000
      6 C         142.0670  140.6562  168.3729 C.3     1  UNL1        0.0005
      7 C         142.2401  140.0076  167.0315 C.3     1  UNL1        0.0087
      8 C         141.0586  139.4026  166.3328 C.3     1  UNL1        0.0704
      9 C         140.9235  138.7008  165.0141 C.3     1  UNL1        0.0243
     10 C         142.3449  139.2836  165.5705 C.2     1  UNL1        0.2250
     11 O         143.3183  138.1932  165.9075 O.2     1  UNL1       -0.2749
     12 N         142.6579  140.2550  164.4711 N.am    1  UNL1       -0.2750
     13 C         143.9442  140.1359  163.7088 C.3     1  UNL1        0.1000
     14 C         144.2571  141.1073  162.6095 C.3     1  UNL1        0.0670
     15 C         143.2837  142.1977  162.2725 C.ar    1  UNL1        0.0583
     16 N         143.5966  143.1690  161.1731 N.ar    1  UNL1       -0.2484
     17 C         142.6232  144.2594  160.8361 C.ar    1  UNL1        0.1023
     18 C         141.3369  144.3784  161.5985 C.ar    1  UNL1        0.0902
     19 C         141.0240  143.4071  162.6978 C.ar    1  UNL1        0.0040
     20 C         141.9974  142.3167  163.0348 C.ar    1  UNL1        0.0113
     21 C         141.6845  141.3453  164.1341 C.3     1  UNL1        0.1213
     22 C         140.3634  145.4688  161.2615 C.3     1  UNL1        0.4200
     23 F         139.3900  146.5591  160.9246 F       1  UNL1       -0.1658
     24 F         140.6677  146.1436  162.5662 F       1  UNL1       -0.1658
     25 F         140.0592  144.7940  159.9569 F       1  UNL1       -0.1658
     26 N         138.9032  137.5869  163.6639 N.3     1  UNL1       -0.2975
     27 H         139.4485  136.7333  163.5440 H       1  UNL1        0.1232
     28 C         140.0324  138.1942  161.4042 C.3     1  UNL1        0.1591
     29 C         139.9779  138.8651  160.0637 C.3     1  UNL1        0.1729
     30 O         138.7399  139.5998  159.6425 O.3     1  UNL1       -0.3511
     31 C         137.5562  139.6635  160.5617 C.3     1  UNL1        0.1437
     32 C         137.6108  138.9925  161.9022 C.3     1  UNL1        0.0503
     33 C         138.8488  138.2579  162.3234 C.3     1  UNL1        0.0865
     34 C         142.5407  137.6210  161.0441 C.3     1  UNL1        0.1742
     35 O         141.2705  137.4595  161.8254 O.3     1  UNL1       -0.3496
@<TRIPOS>BOND
     1    34    35    1
     2    35    28    1
     3    28    29    1
     4    29    30    1
     5    30    31    1
     6    31    32    1
     7    32    33    1
     8    33    26    1
     9     1    26    1
    10     1     2    1
    11     3     2    1
    12     3     4    1
    13     4     5    1
    14     5     6    1
    15     6     7    1
    16     7     8    1
    17     8    10    1
    18    10    11    2
    19    10    12   am
    20    12    13    1
    21    13    14    1
    22    14    15    1
    23    15    16   ar
    24    16    17   ar
    25    17    18   ar
    26    18    22    1
    27    22    23    1
    28    22    24    1
    29    22    25    1
    30    18    19   ar
    31    19    20   ar
    32    20    21    1
    33     8     9    1
    34    33    28    1
    35     9     1    1
    36     8     3    1
    37    21    12    1
    38    20    15   ar
    39    26    27    1
@<TRIPOS>MOLECULE
*****
 35 39 0 0 0
SMALL
GASTEIGER

@<TRIPOS>ATOM
      1 C         140.0439  141.5619  162.9922 C.3     1  UNL1        0.0545
      2 C         140.1419  143.0405  162.7592 C.3     1  UNL1        0.0162
      3 C         141.5929  143.4194  162.7905 C.3     1  UNL1        0.0095
      4 C         142.2901  144.7369  162.6218 C.3     1  UNL1        0.0005
      5 C         143.7860  144.8099  162.7055 C.3     1  UNL1        0.0000
      6 C         144.5847  143.5655  162.9579 C.3     1  UNL1        0.0005
      7 C         143.8876  142.2481  163.1265 C.3     1  UNL1        0.0087
      8 C         142.3917  142.1751  163.0429 C.3     1  UNL1        0.0704
      9 C         141.4343  141.0271  163.1675 C.3     1  UNL1        0.0243
     10 C         143.0537  140.8537  163.2990 C.2     1  UNL1        0.2250
     11 O         143.7057  140.1104  162.1710 O.2     1  UNL1       -0.2749
     12 N         143.0636  140.2755  164.6831 N.am    1  UNL1       -0.2750
     13 C         143.7256  138.9541  164.9392 C.3     1  UNL1        0.1000
     14 C         143.7356  138.3761  166.3232 C.3     1  UNL1        0.0670
     15 C         143.0836  139.1194  167.4512 C.ar    1  UNL1        0.0583
     16 N         143.0935  138.5412  168.8353 N.ar    1  UNL1       -0.2484
     17 C         142.4415  139.2845  169.9633 C.ar    1  UNL1        0.1023
     18 C         141.7795  140.6060  169.7072 C.ar    1  UNL1        0.0902
     19 C         141.7695  141.1841  168.3231 C.ar    1  UNL1        0.0040
     20 C         142.4216  140.4408  167.1951 C.ar    1  UNL1        0.0113
     21 C         142.4116  141.0189  165.8111 C.3     1  UNL1        0.1213
     22 C         141.1275  141.3493  170.8351 C.3     1  UNL1        0.4200
     23 F         140.4754  142.0927  171.9631 F       1  UNL1       -0.1658
     24 F         140.1078  141.9000  169.8828 F       1  UNL1       -0.1658
     25 F         142.1472  140.7986  171.7875 F       1  UNL1       -0.1658
     26 N         138.7777  140.7592  163.0413 N.3     1  UNL1       -0.2975
     27 H         138.0119  141.4236  163.1525 H       1  UNL1        0.1232
     28 C         138.9344  138.2784  163.7971 C.3     1  UNL1        0.1591
     29 C         138.7529  137.2279  164.8523 C.3     1  UNL1        0.1729
     30 O         138.2331  137.6078  166.2071 O.3     1  UNL1       -0.3511
     31 C         137.8948  139.0381  166.5067 C.3     1  UNL1        0.1437
     32 C         138.0764  140.0886  165.4514 C.3     1  UNL1        0.0503
     33 C         138.5962  139.7087  164.0966 C.3     1  UNL1        0.0865
     34 C         140.9102  137.5885  162.2574 C.3     1  UNL1        0.1742
     35 O         139.4542  137.8984  162.4423 O.3     1  UNL1       -0.3496
@<TRIPOS>BOND
     1    34    35    1
     2    35    28    1
     3    28    29    1
     4    29    30    1
     5    30    31    1
     6    31    32    1
     7    32    33    1
     8    33    26    1
     9     1    26    1
    10     1     2    1
    11     3     2    1
    12     3     4    1
    13     4     5    1
    14     5     6    1
    15     6     7    1
    16     7     8    1
    17     8    10    1
    18    10    11    2
    19    10    12   am
    20    12    13    1
    21    13    14    1
    22    14    15    1
    23    15    16   ar
    24    16    17   ar
    25    17    18   ar
    26    18    22    1
    27    22    23    1
    28    22    24    1
    29    22    25    1
    30    18    19   ar
    31    19    20   ar
    32    20    21    1
    33     8     9    1
    34    33    28    1
    35     9     1    1
    36     8     3    1
    37    21    12    1
    38    20    15   ar
    39    26    27    1
@<TRIPOS>MOLECULE
*****
 35 39 0 0 0
SMALL
GASTEIGER

@<TRIPOS>ATOM
      1 C         142.8027  140.2263  165.0667 C.3     1  UNL1        0.0545
      2 C         142.5000  138.7995  164.7168 C.3     1  UNL1        0.0162
      3 C         141.0634  138.5336  165.0565 C.3     1  UNL1        0.0095
      4 C         140.2125  137.3048  164.9284 C.3     1  UNL1        0.0005
      5 C         138.7764  137.3387  165.3601 C.3     1  UNL1        0.0000
      6 C         138.1911  138.6013  165.9201 C.3     1  UNL1        0.0005
      7 C         139.0420  139.8300  166.0482 C.3     1  UNL1        0.0087
      8 C         140.4781  139.7961  165.6164 C.3     1  UNL1        0.0704
      9 C         141.5531  140.8423  165.6227 C.3     1  UNL1        0.0243
     10 C         140.0341  141.1238  166.1549 C.2     1  UNL1        0.2250
     11 O         139.6999  141.2692  167.6099 O.2     1  UNL1       -0.2749
     12 N         139.9242  142.3062  165.2383 N.am    1  UNL1       -0.2750
     13 C         139.4802  143.6338  165.7768 C.3     1  UNL1        0.1000
     14 C         139.3703  144.8161  164.8603 C.3     1  UNL1        0.0670
     15 C         139.7045  144.6707  163.4052 C.ar    1  UNL1        0.0583
     16 N         139.5947  145.8531  162.4886 N.ar    1  UNL1       -0.2484
     17 C         139.9288  145.7076  161.0336 C.ar    1  UNL1        0.1023
     18 C         140.3729  144.3798  160.4951 C.ar    1  UNL1        0.0902
     19 C         140.4828  143.1976  161.4117 C.ar    1  UNL1        0.0040
     20 C         140.1486  143.3430  162.8667 C.ar    1  UNL1        0.0113
     21 C         140.2584  142.1607  163.7833 C.3     1  UNL1        0.1213
     22 C         140.7071  144.2344  159.0401 C.3     1  UNL1        0.4200
     23 F         141.0413  144.0890  157.5850 F       1  UNL1       -0.1658
     24 F         140.0663  142.8782  159.0284 F       1  UNL1       -0.1658
     25 F         141.3478  145.5906  159.0517 F       1  UNL1       -0.1658
     26 N         144.1230  140.9162  164.8914 N.3     1  UNL1       -0.2975
     27 H         144.4686  141.1325  165.8263 H       1  UNL1        0.1232
     28 C         144.6475  142.1420  162.6615 C.3     1  UNL1        0.1591
     29 C         144.7311  143.4101  161.8648 C.3     1  UNL1        0.1729
     30 O         144.3740  144.7206  162.5011 O.3     1  UNL1       -0.3511
     31 C         143.9332  144.7630  163.9343 C.3     1  UNL1        0.1437
     32 C         143.8496  143.4948  164.7310 C.3     1  UNL1        0.0503
     33 C         144.2067  142.1843  164.0947 C.3     1  UNL1        0.0865
     34 C         144.0140  140.1316  161.1425 C.3     1  UNL1        0.1742
     35 O         145.0046  140.8315  162.0251 O.3     1  UNL1       -0.3496
@<TRIPOS>BOND
     1    34    35    1
     2    35    28    1
     3    28    29    1
     4    29    30    1
     5    30    31    1
     6    31    32    1
     7    32    33    1
     8    33    26    1
     9     1    26    1
    10     1     2    1
    11     3     2    1
    12     3     4    1
    13     4     5    1
    14     5     6    1
    15     6     7    1
    16     7     8    1
    17     8    10    1
    18    10    11    2
    19    10    12   am
    20    12    13    1
    21    13    14    1
    22    14    15    1
    23    15    16   ar
    24    16    17   ar
    25    17    18   ar
    26    18    22    1
    27    22    23    1
    28    22    24    1
    29    22    25    1
    30    18    19   ar
    31    19    20   ar
    32    20    21    1
    33     8     9    1
    34    33    28    1
    35     9     1    1
    36     8     3    1
    37    21    12    1
    38    20    15   ar
    39    26    27    1
@<TRIPOS>MOLECULE
*****
 35 39 0 0 0
SMALL
GASTEIGER

@<TRIPOS>ATOM
      1 C         141.8754  141.2781  161.7710 C.3     1  UNL1        0.0545
      2 C         140.4948  141.4662  161.2155 C.3     1  UNL1        0.0162
      3 C         139.6695  140.2782  161.6127 C.3     1  UNL1        0.0095
      4 C         138.2378  139.9172  161.3484 C.3     1  UNL1        0.0005
      5 C         137.6765  138.6339  161.8852 C.3     1  UNL1        0.0000
      6 C         138.5471  137.7116  162.6864 C.3     1  UNL1        0.0005
      7 C         139.9788  138.0727  162.9506 C.3     1  UNL1        0.0087
      8 C         140.5400  139.3560  162.4138 C.3     1  UNL1        0.0704
      9 C         141.9033  139.9739  162.5116 C.3     1  UNL1        0.0243
     10 C         141.5260  138.5381  163.1940 C.2     1  UNL1        0.2250
     11 O         142.1570  137.3285  162.5704 O.2     1  UNL1       -0.2749
     12 N         141.8809  138.9296  164.5978 N.am    1  UNL1       -0.2750
     13 C         142.8669  138.1117  165.3781 C.3     1  UNL1        0.1000
     14 C         143.2218  138.5033  166.7818 C.3     1  UNL1        0.0670
     15 C         142.5908  139.7128  167.4054 C.ar    1  UNL1        0.0583
     16 N         142.9458  140.1044  168.8093 N.ar    1  UNL1       -0.2484
     17 C         142.3147  141.3139  169.4328 C.ar    1  UNL1        0.1023
     18 C         141.3287  142.1319  168.6525 C.ar    1  UNL1        0.0902
     19 C         140.9738  141.7403  167.2487 C.ar    1  UNL1        0.0040
     20 C         141.6048  140.5307  166.6252 C.ar    1  UNL1        0.0113
     21 C         141.2499  140.1392  165.2214 C.3     1  UNL1        0.1213
     22 C         140.6976  143.3414  169.2761 C.3     1  UNL1        0.4200
     23 F         140.0666  144.5509  169.8996 F       1  UNL1       -0.1658
     24 F         141.3506  143.0075  170.5846 F       1  UNL1       -0.1658
     25 F         140.0447  143.6753  167.9676 F       1  UNL1       -0.1658
     26 N         143.0260  142.2274  161.6137 N.3     1  UNL1       -0.2975
     27 H         143.8275  141.6717  161.3149 H       1  UNL1        0.1232
     28 C         143.0816  144.4949  162.8807 C.3     1  UNL1        0.1591
     29 C         143.5377  145.3204  164.0471 C.3     1  UNL1        0.1729
     30 O         144.3943  144.7039  165.1129 O.3     1  UNL1       -0.3511
     31 C         144.7949  143.2619  165.0124 C.3     1  UNL1        0.1437
     32 C         144.3388  142.4364  163.8459 C.3     1  UNL1        0.0503
     33 C         143.4821  143.0529  162.7801 C.3     1  UNL1        0.0865
     34 C         140.7866  145.4288  162.0990 C.3     1  UNL1        0.1742
     35 O         142.2249  145.1115  161.8149 O.3     1  UNL1       -0.3496
@<TRIPOS>BOND
     1    34    35    1
     2    35    28    1
     3    28    29    1
     4    29    30    1
     5    30    31    1
     6    31    32    1
     7    32    33    1
     8    33    26    1
     9     1    26    1
    10     1     2    1
    11     3     2    1
    12     3     4    1
    13     4     5    1
    14     5     6    1
    15     6     7    1
    16     7     8    1
    17     8    10    1
    18    10    11    2
    19    10    12   am
    20    12    13    1
    21    13    14    1
    22    14    15    1
    23    15    16   ar
    24    16    17   ar
    25    17    18   ar
    26    18    22    1
    27    22    23    1
    28    22    24    1
    29    22    25    1
    30    18    19   ar
    31    19    20   ar
    32    20    21    1
    33     8     9    1
    34    33    28    1
    35     9     1    1
    36     8     3    1
    37    21    12    1
    38    20    15   ar
    39    26    27    1
@<TRIPOS>MOLECULE
*****
 35 39 0 0 0
SMALL
GASTEIGER

@<TRIPOS>ATOM
      1 C         140.0079  141.8278  164.8501 C.3     1  UNL1        0.0545
      2 C         141.2577  141.4470  165.5870 C.3     1  UNL1        0.0162
      3 C         142.2917  142.5006  165.3210 C.3     1  UNL1        0.0095
      4 C         143.7106  142.6537  165.7830 C.3     1  UNL1        0.0005
      5 C         144.5187  143.8386  165.3437 C.3     1  UNL1        0.0000
      6 C         143.9079  144.8705  164.4425 C.3     1  UNL1        0.0005
      7 C         142.4891  144.7174  163.9805 C.3     1  UNL1        0.0087
      8 C         141.6810  143.5325  164.4197 C.3     1  UNL1        0.0704
      9 C         140.2695  143.1166  164.1288 C.3     1  UNL1        0.0243
     10 C         140.9392  144.4779  163.5221 C.2     1  UNL1        0.2250
     11 O         139.9422  145.4367  164.1024 O.2     1  UNL1       -0.2749
     12 N         141.1943  144.4646  162.0439 N.am    1  UNL1       -0.2750
     13 C         140.4525  145.4101  161.1463 C.3     1  UNL1        0.1000
     14 C         140.7077  145.3967  159.6682 C.3     1  UNL1        0.0670
     15 C         141.7047  144.4380  159.0878 C.ar    1  UNL1        0.0583
     16 N         141.9598  144.4247  157.6097 N.ar    1  UNL1       -0.2484
     17 C         142.9568  143.4659  157.0293 C.ar    1  UNL1        0.1023
     18 C         143.6986  142.5204  157.9271 C.ar    1  UNL1        0.0902
     19 C         143.4434  142.5338  159.4051 C.ar    1  UNL1        0.0040
     20 C         142.4465  143.4925  159.9855 C.ar    1  UNL1        0.0113
     21 C         142.1913  143.5059  161.4635 C.3     1  UNL1        0.1213
     22 C         144.6955  141.5617  157.3467 C.3     1  UNL1        0.4200
     23 F         145.6925  140.6029  156.7663 F       1  UNL1       -0.1658
     24 F         144.4784  140.6344  158.5056 F       1  UNL1       -0.1658
     25 F         144.9127  142.4890  156.1878 F       1  UNL1       -0.1658
     26 N         138.7221  141.0553  164.8370 N.3     1  UNL1       -0.2975
     27 H         138.6323  140.6175  165.7539 H       1  UNL1        0.1232
     28 C         137.7769  140.2813  162.5441 C.3     1  UNL1        0.1591
     29 C         137.5612  139.2014  161.5256 C.3     1  UNL1        0.1729
     30 O         138.0750  137.8156  161.7815 O.3     1  UNL1       -0.3511
     31 C         138.8045  137.5096  163.0560 C.3     1  UNL1        0.1437
     32 C         139.0202  138.5896  164.0745 C.3     1  UNL1        0.0503
     33 C         138.5064  139.9754  163.8185 C.3     1  UNL1        0.0865
     34 C         138.0092  142.5852  161.3660 C.3     1  UNL1        0.1742
     35 O         137.2631  141.6671  162.2881 O.3     1  UNL1       -0.3496
@<TRIPOS>BOND
     1    34    35    1
     2    35    28    1
     3    28    29    1
     4    29    30    1
     5    30    31    1
     6    31    32    1
     7    32    33    1
     8    33    26    1
     9     1    26    1
    10     1     2    1
    11     3     2    1
    12     3     4    1
    13     4     5    1
    14     5     6    1
    15     6     7    1
    16     7     8    1
    17     8    10    1
    18    10    11    2
    19    10    12   am
    20    12    13    1
    21    13    14    1
    22    14    15    1
    23    15    16   ar
    24    16    17   ar
    25    17    18   ar
    26    18    22    1
    27    22    23    1
    28    22    24    1
    29    22    25    1
    30    18    19   ar
    31    19    20   ar
    32    20    21    1
    33     8     9    1
    34    33    28    1
    35     9     1    1
    36     8     3    1
    37    21    12    1
    38    20    15   ar
    39    26    27    1
