@<TRIPOS>MOLECULE
*****
 30 33 0 0 0
SMALL
GASTEIGER

@<TRIPOS>ATOM
      1 C         139.4941  139.1955  166.3185 C.ar    1  UNL1        0.1488
      2 C         138.5733  138.1484  165.7656 C.ar    1  UNL1        0.0390
      3 C         138.8564  137.5313  164.4281 C.ar    1  UNL1        0.0417
      4 C         140.0604  137.9613  163.6435 C.ar    1  UNL1        0.1640
      5 N         140.5924  137.5349  162.3073 N.ar    1  UNL1       -0.2234
      6 C         141.8419  138.3185  162.0344 C.ar    1  UNL1        0.1197
      7 C         142.0822  139.2291  163.2019 C.ar    1  UNL1        0.1037
      8 N         140.9812  139.0084  164.1964 N.ar    1  UNL1       -0.2096
      9 N         140.6980  139.6255  165.5339 N.ar    1  UNL1       -0.1489
     10 C         143.2232  140.1916  163.3491 C.ar    1  UNL1        0.0223
     11 C         144.5259  139.7274  163.9302 C.ar    1  UNL1        0.0017
     12 C         145.6669  140.6898  164.0774 C.ar    1  UNL1        0.0032
     13 C         145.5054  142.1166  163.6436 C.ar    1  UNL1        0.0372
     14 C         144.2027  142.5809  163.0626 C.ar    1  UNL1        0.1469
     15 C         143.0617  141.6184  162.9153 C.ar    1  UNL1        0.0387
     16 O         144.0411  144.0077  162.6287 O.3     1  UNL1       -0.4045
     17 C         143.0477  144.8939  163.3199 C.3     1  UNL1        0.5753
     18 F         142.0542  145.7801  164.0112 F       1  UNL1       -0.1328
     19 F         142.1160  144.7604  162.1519 F       1  UNL1       -0.1328
     20 F         143.9794  145.0272  164.4879 F       1  UNL1       -0.1328
     21 N         139.2110  139.8126  167.6561 N.pl3   1  UNL1       -0.3184
     22 H         138.3429  139.6601  168.0947 H       1  UNL1        0.1482
     23 C         142.3295  142.3610  169.6636 C.3     1  UNL1        0.1154
     24 C         141.1426  143.0042  169.0099 C.3     1  UNL1        0.0312
     25 C         140.1030  142.1548  168.3406 C.3     1  UNL1        0.0220
     26 C         140.2504  140.6621  168.3252 C.3     1  UNL1        0.0706
     27 C         141.4375  140.0189  168.9791 C.3     1  UNL1        0.0220
     28 C         142.4769  140.8684  169.6482 C.3     1  UNL1        0.0312
     29 C         144.8237  142.8833  170.1696 C.3     1  UNL1        0.1740
     30 O         143.3690  143.2105  170.3328 O.3     1  UNL1       -0.3536
@<TRIPOS>BOND
     1    29    30    1
     2    23    30    1
     3    23    24    1
     4    24    25    1
     5    25    26    1
     6    26    21    1
     7    21     1    1
     8     1     2   ar
     9     2     3   ar
    10     3     4   ar
    11     4     5   ar
    12     5     6   ar
    13     6     7   ar
    14     7    10    1
    15    10    11   ar
    16    11    12   ar
    17    12    13   ar
    18    13    14   ar
    19    14    16    1
    20    16    17    1
    21    17    18    1
    22    17    19    1
    23    17    20    1
    24    14    15   ar
    25     7     8   ar
    26     8     9   ar
    27    26    27    1
    28    27    28    1
    29    28    23    1
    30     9     1   ar
    31     8     4   ar
    32    15    10   ar
    33    21    22    1
@<TRIPOS>MOLECULE
*****
 30 33 0 0 0
SMALL
GASTEIGER

@<TRIPOS>ATOM
      1 C         143.0746  142.4125  167.1347 C.ar    1  UNL1        0.1488
      2 C         143.2508  142.1616  168.6030 C.ar    1  UNL1        0.0390
      3 C         142.2526  141.3239  169.3457 C.ar    1  UNL1        0.0417
      4 C         141.0782  140.7371  168.6202 C.ar    1  UNL1        0.1640
      5 N         139.9396  139.8773  169.0835 N.ar    1  UNL1       -0.2234
      6 C         139.0598  139.5969  167.9014 C.ar    1  UNL1        0.1197
      7 C         139.6545  140.2834  166.7077 C.ar    1  UNL1        0.1037
      8 N         140.9020  140.9880  167.1519 N.ar    1  UNL1       -0.2096
      9 N         141.9002  141.8257  166.4092 N.ar    1  UNL1       -0.1489
     10 C         139.0994  140.2679  165.3143 C.ar    1  UNL1        0.0223
     11 C         139.1772  139.0172  164.4898 C.ar    1  UNL1        0.0017
     12 C         138.6220  139.0018  163.0964 C.ar    1  UNL1        0.0032
     13 C         137.9890  140.2369  162.5275 C.ar    1  UNL1        0.0372
     14 C         137.9112  141.4875  163.3520 C.ar    1  UNL1        0.1469
     15 C         138.4664  141.5030  164.7454 C.ar    1  UNL1        0.0387
     16 O         137.2782  142.7228  162.7831 O.3     1  UNL1       -0.4045
     17 C         138.0347  144.0180  162.7759 C.3     1  UNL1        0.5753
     18 F         138.7913  145.3132  162.7687 F       1  UNL1       -0.1328
     19 F         137.3249  144.4395  164.0283 F       1  UNL1       -0.1328
     20 F         138.7445  143.5963  161.5235 F       1  UNL1       -0.1328
     21 N         144.0729  143.2503  166.3919 N.pl3   1  UNL1       -0.3184
     22 H         144.6052  143.9241  166.8732 H       1  UNL1        0.1482
     23 C         144.6343  142.6832  161.9632 C.3     1  UNL1        0.1154
     24 C         143.9182  143.8960  162.4792 C.3     1  UNL1        0.0312
     25 C         143.7310  144.0850  163.9554 C.3     1  UNL1        0.0220
     26 C         144.2600  143.0613  164.9157 C.3     1  UNL1        0.0706
     27 C         144.9762  141.8484  164.3996 C.3     1  UNL1        0.0220
     28 C         145.1633  141.6594  162.9234 C.3     1  UNL1        0.0312
     29 C         143.6914  142.7850  159.5444 C.3     1  UNL1        0.1740
     30 O         144.8214  142.4942  160.4870 O.3     1  UNL1       -0.3536
@<TRIPOS>BOND
     1    29    30    1
     2    23    30    1
     3    23    24    1
     4    24    25    1
     5    25    26    1
     6    26    21    1
     7    21     1    1
     8     1     2   ar
     9     2     3   ar
    10     3     4   ar
    11     4     5   ar
    12     5     6   ar
    13     6     7   ar
    14     7    10    1
    15    10    11   ar
    16    11    12   ar
    17    12    13   ar
    18    13    14   ar
    19    14    16    1
    20    16    17    1
    21    17    18    1
    22    17    19    1
    23    17    20    1
    24    14    15   ar
    25     7     8   ar
    26     8     9   ar
    27    26    27    1
    28    27    28    1
    29    28    23    1
    30     9     1   ar
    31     8     4   ar
    32    15    10   ar
    33    21    22    1
@<TRIPOS>MOLECULE
*****
 30 33 0 0 0
SMALL
GASTEIGER

@<TRIPOS>ATOM
      1 C         139.0377  141.7134  164.1482 C.ar    1  UNL1        0.1488
      2 C         137.9010  142.6451  164.4477 C.ar    1  UNL1        0.0390
      3 C         137.8340  143.9858  163.7783 C.ar    1  UNL1        0.0417
      4 C         138.9036  144.3947  162.8095 C.ar    1  UNL1        0.1640
      5 N         139.1028  145.6435  162.0025 N.ar    1  UNL1       -0.2234
      6 C         140.3626  145.4834  161.2043 C.ar    1  UNL1        0.1197
      7 C         140.9420  144.1358  161.5179 C.ar    1  UNL1        0.1037
      8 N         140.0403  143.4630  162.5100 N.ar    1  UNL1       -0.2096
      9 N         140.1074  142.1223  163.1793 N.ar    1  UNL1       -0.1489
     10 C         142.2019  143.5618  160.9408 C.ar    1  UNL1        0.0223
     11 C         142.3851  143.4995  159.4533 C.ar    1  UNL1        0.0017
     12 C         143.6451  142.9255  158.8762 C.ar    1  UNL1        0.0032
     13 C         144.7218  142.4138  159.7865 C.ar    1  UNL1        0.0372
     14 C         144.5386  142.4761  161.2740 C.ar    1  UNL1        0.1469
     15 C         143.2787  143.0501  161.8511 C.ar    1  UNL1        0.0387
     16 O         145.6155  141.9644  162.1844 O.3     1  UNL1       -0.4045
     17 C         145.2524  141.1624  163.3988 C.3     1  UNL1        0.5753
     18 F         144.8892  140.3603  164.6133 F       1  UNL1       -0.1328
     19 F         145.7379  142.2756  164.2792 F       1  UNL1       -0.1328
     20 F         144.7668  140.0492  162.5184 F       1  UNL1       -0.1328
     21 N         139.1049  140.3726  164.8175 N.pl3   1  UNL1       -0.3184
     22 H         138.5036  139.6481  164.5297 H       1  UNL1        0.1482
     23 C         142.0542  139.6622  168.1411 C.3     1  UNL1        0.1154
     24 C         142.4634  139.4405  166.7152 C.3     1  UNL1        0.0312
     25 C         141.4803  139.6773  165.6072 C.3     1  UNL1        0.0220
     26 C         140.0880  140.1358  165.9253 C.3     1  UNL1        0.0706
     27 C         139.6788  140.3575  167.3514 C.3     1  UNL1        0.0220
     28 C         140.6619  140.1206  168.4592 C.3     1  UNL1        0.0312
     29 C         142.8413  140.0883  170.5801 C.3     1  UNL1        0.1740
     30 O         143.0373  139.4254  169.2490 O.3     1  UNL1       -0.3536
@<TRIPOS>BOND
     1    29    30    1
     2    23    30    1
     3    23    24    1
     4    24    25    1
     5    25    26    1
     6    26    21    1
     7    21     1    1
     8     1     2   ar
     9     2     3   ar
    10     3     4   ar
    11     4     5   ar
    12     5     6   ar
    13     6     7   ar
    14     7    10    1
    15    10    11   ar
    16    11    12   ar
    17    12    13   ar
    18    13    14   ar
    19    14    16    1
    20    16    17    1
    21    17    18    1
    22    17    19    1
    23    17    20    1
    24    14    15   ar
    25     7     8   ar
    26     8     9   ar
    27    26    27    1
    28    27    28    1
    29    28    23    1
    30     9     1   ar
    31     8     4   ar
    32    15    10   ar
    33    21    22    1
@<TRIPOS>MOLECULE
*****
 30 33 0 0 0
SMALL
GASTEIGER

@<TRIPOS>ATOM
      1 C         140.3961  142.7727  167.0198 C.ar    1  UNL1        0.1488
      2 C         140.5789  142.8191  168.5078 C.ar    1  UNL1        0.0390
      3 C         141.3906  141.7627  169.1970 C.ar    1  UNL1        0.0417
      4 C         142.0194  140.6598  168.3982 C.ar    1  UNL1        0.1640
      5 N         142.8669  139.4884  168.7979 N.ar    1  UNL1       -0.2234
      6 C         143.2078  138.7180  167.5569 C.ar    1  UNL1        0.1197
      7 C         142.5710  139.4132  166.3902 C.ar    1  UNL1        0.1037
      8 N         141.8365  140.6133  166.9101 N.ar    1  UNL1       -0.2096
      9 N         141.0249  141.6697  166.2209 N.ar    1  UNL1       -0.1489
     10 C         142.6541  138.9838  164.9554 C.ar    1  UNL1        0.0223
     11 C         143.9277  139.1775  164.1870 C.ar    1  UNL1        0.0017
     12 C         144.0108  138.7481  162.7522 C.ar    1  UNL1        0.0032
     13 C         142.8203  138.1249  162.0857 C.ar    1  UNL1        0.0372
     14 C         141.5467  137.9312  162.8540 C.ar    1  UNL1        0.1469
     15 C         141.4636  138.3606  164.2888 C.ar    1  UNL1        0.0387
     16 O         140.3561  137.3079  162.1875 O.3     1  UNL1       -0.4045
     17 C         139.0581  138.0566  162.1181 C.3     1  UNL1        0.5753
     18 F         137.7601  138.8052  162.0487 F       1  UNL1       -0.1328
     19 F         139.6094  138.9101  161.0146 F       1  UNL1       -0.1328
     20 F         138.5069  137.2030  163.2216 F       1  UNL1       -0.1328
     21 N         139.5844  143.8292  166.3304 N.pl3   1  UNL1       -0.3184
     22 H         139.3087  144.6367  166.8215 H       1  UNL1        0.1482
     23 C         138.4095  143.3075  162.0180 C.3     1  UNL1        0.1154
     24 C         139.5435  144.2195  162.3813 C.3     1  UNL1        0.0312
     25 C         139.9352  144.3935  163.8188 C.3     1  UNL1        0.0220
     26 C         139.1928  143.6553  164.8930 C.3     1  UNL1        0.0706
     27 C         138.0586  142.7432  164.5296 C.3     1  UNL1        0.0220
     28 C         137.6670  142.5693  163.0922 C.3     1  UNL1        0.0312
     29 C         138.4394  141.9041  159.8318 C.3     1  UNL1        0.1740
     30 O         138.0179  143.1336  160.5805 O.3     1  UNL1       -0.3536
@<TRIPOS>BOND
     1    29    30    1
     2    23    30    1
     3    23    24    1
     4    24    25    1
     5    25    26    1
     6    26    21    1
     7    21     1    1
     8     1     2   ar
     9     2     3   ar
    10     3     4   ar
    11     4     5   ar
    12     5     6   ar
    13     6     7   ar
    14     7    10    1
    15    10    11   ar
    16    11    12   ar
    17    12    13   ar
    18    13    14   ar
    19    14    16    1
    20    16    17    1
    21    17    18    1
    22    17    19    1
    23    17    20    1
    24    14    15   ar
    25     7     8   ar
    26     8     9   ar
    27    26    27    1
    28    27    28    1
    29    28    23    1
    30     9     1   ar
    31     8     4   ar
    32    15    10   ar
    33    21    22    1
@<TRIPOS>MOLECULE
*****
 30 33 0 0 0
SMALL
GASTEIGER

@<TRIPOS>ATOM
      1 C         139.2251  139.8774  167.7667 C.ar    1  UNL1        0.1488
      2 C         138.9794  140.1634  169.2185 C.ar    1  UNL1        0.0390
      3 C         139.9851  140.9464  170.0093 C.ar    1  UNL1        0.0417
      4 C         141.2366  141.4433  169.3483 C.ar    1  UNL1        0.1640
      5 N         142.4001  142.2345  169.8684 N.ar    1  UNL1       -0.2234
      6 C         143.3649  142.4374  168.7379 C.ar    1  UNL1        0.1197
      7 C         142.7977  141.7716  167.5193 C.ar    1  UNL1        0.1037
      8 N         141.4824  141.1572  167.8966 N.ar    1  UNL1       -0.2096
      9 N         140.4766  140.3742  167.1057 N.ar    1  UNL1       -0.1489
     10 C         143.4342  141.7278  166.1617 C.ar    1  UNL1        0.0223
     11 C         143.8920  142.9973  165.5068 C.ar    1  UNL1        0.0017
     12 C         144.5284  142.9535  164.1492 C.ar    1  UNL1        0.0032
     13 C         144.7071  141.6404  163.4465 C.ar    1  UNL1        0.0372
     14 C         144.2492  140.3710  164.1015 C.ar    1  UNL1        0.1469
     15 C         143.6128  140.4147  165.4590 C.ar    1  UNL1        0.0387
     16 O         144.4278  139.0578  163.3988 O.3     1  UNL1       -0.4045
     17 C         143.3802  138.5704  162.4422 C.3     1  UNL1        0.5753
     18 F         142.3326  138.0830  161.4857 F       1  UNL1       -0.1328
     19 F         144.1623  139.1396  161.2958 F       1  UNL1       -0.1328
     20 F         142.5982  138.0012  163.5888 F       1  UNL1       -0.1328
     21 N         138.2194  139.0943  166.9758 N.pl3   1  UNL1       -0.3184
     22 H         137.4173  138.7341  167.4187 H       1  UNL1        0.1482
     23 C         138.8684  138.3918  162.5786 C.3     1  UNL1        0.1154
     24 C         138.2433  139.6715  163.0494 C.3     1  UNL1        0.0312
     25 C         138.0270  139.9057  164.5152 C.3     1  UNL1        0.0220
     26 C         138.4357  138.8602  165.5101 C.3     1  UNL1        0.0706
     27 C         139.0608  137.5805  165.0392 C.3     1  UNL1        0.0220
     28 C         139.2771  137.3463  163.5735 C.3     1  UNL1        0.0312
     29 C         138.9710  139.2990  160.1462 C.3     1  UNL1        0.1740
     30 O         139.0847  138.1577  161.1129 O.3     1  UNL1       -0.3536
@<TRIPOS>BOND
     1    29    30    1
     2    23    30    1
     3    23    24    1
     4    24    25    1
     5    25    26    1
     6    26    21    1
     7    21     1    1
     8     1     2   ar
     9     2     3   ar
    10     3     4   ar
    11     4     5   ar
    12     5     6   ar
    13     6     7   ar
    14     7    10    1
    15    10    11   ar
    16    11    12   ar
    17    12    13   ar
    18    13    14   ar
    19    14    16    1
    20    16    17    1
    21    17    18    1
    22    17    19    1
    23    17    20    1
    24    14    15   ar
    25     7     8   ar
    26     8     9   ar
    27    26    27    1
    28    27    28    1
    29    28    23    1
    30     9     1   ar
    31     8     4   ar
    32    15    10   ar
    33    21    22    1
@<TRIPOS>MOLECULE
*****
 30 33 0 0 0
SMALL
GASTEIGER

@<TRIPOS>ATOM
      1 C         138.6797  139.6680  165.0861 C.ar    1  UNL1        0.1488
      2 C         138.0621  139.3757  166.4214 C.ar    1  UNL1        0.0390
      3 C         138.8834  139.4985  167.6706 C.ar    1  UNL1        0.0417
      4 C         140.3222  139.9137  167.5844 C.ar    1  UNL1        0.1640
      5 N         141.3724  140.1187  168.6357 N.ar    1  UNL1       -0.2234
      6 C         142.6390  140.5378  167.9500 C.ar    1  UNL1        0.1197
      7 C         142.3716  140.5917  166.4750 C.ar    1  UNL1        0.1037
      8 N         140.9398  140.2060  166.2490 N.ar    1  UNL1       -0.2096
      9 N         140.1185  140.0832  164.9999 N.ar    1  UNL1       -0.1489
     10 C         143.3621  140.9657  165.4125 C.ar    1  UNL1        0.0223
     11 C         144.3240  139.9404  164.8895 C.ar    1  UNL1        0.0017
     12 C         145.3146  140.3144  163.8270 C.ar    1  UNL1        0.0032
     13 C         145.3433  141.7137  163.2874 C.ar    1  UNL1        0.0372
     14 C         144.3814  142.7390  163.8104 C.ar    1  UNL1        0.1469
     15 C         143.3909  142.3650  164.8729 C.ar    1  UNL1        0.0387
     16 O         144.4100  144.1384  163.2709 O.3     1  UNL1       -0.4045
     17 C         143.2255  145.0392  163.4590 C.3     1  UNL1        0.5753
     18 F         142.0409  145.9400  163.6473 F       1  UNL1       -0.1328
     19 F         142.5677  144.4249  162.2591 F       1  UNL1       -0.1328
     20 F         143.8833  145.6535  164.6591 F       1  UNL1       -0.1328
     21 N         137.8584  139.5452  163.8369 N.pl3   1  UNL1       -0.3184
     22 H         137.1706  138.8443  163.7669 H       1  UNL1        0.1482
     23 C         138.5384  142.3805  160.4093 C.3     1  UNL1        0.1154
     24 C         138.0132  142.8962  161.7162 C.3     1  UNL1        0.0312
     25 C         137.7865  141.9511  162.8588 C.3     1  UNL1        0.0220
     26 C         138.0851  140.4903  162.6944 C.3     1  UNL1        0.0706
     27 C         138.6103  139.9747  161.3873 C.3     1  UNL1        0.0220
     28 C         138.8370  140.9198  160.2448 C.3     1  UNL1        0.0312
     29 C         139.9923  144.1877  159.2386 C.3     1  UNL1        0.1740
     30 O         138.7650  143.3256  159.2667 O.3     1  UNL1       -0.3536
@<TRIPOS>BOND
     1    29    30    1
     2    23    30    1
     3    23    24    1
     4    24    25    1
     5    25    26    1
     6    26    21    1
     7    21     1    1
     8     1     2   ar
     9     2     3   ar
    10     3     4   ar
    11     4     5   ar
    12     5     6   ar
    13     6     7   ar
    14     7    10    1
    15    10    11   ar
    16    11    12   ar
    17    12    13   ar
    18    13    14   ar
    19    14    16    1
    20    16    17    1
    21    17    18    1
    22    17    19    1
    23    17    20    1
    24    14    15   ar
    25     7     8   ar
    26     8     9   ar
    27    26    27    1
    28    27    28    1
    29    28    23    1
    30     9     1   ar
    31     8     4   ar
    32    15    10   ar
    33    21    22    1
@<TRIPOS>MOLECULE
*****
 30 33 0 0 0
SMALL
GASTEIGER

@<TRIPOS>ATOM
      1 C         141.1603  138.7260  164.5292 C.ar    1  UNL1        0.1488
      2 C         140.3497  137.5119  164.1844 C.ar    1  UNL1        0.0390
      3 C         139.1887  137.6283  163.2419 C.ar    1  UNL1        0.0417
      4 C         138.8382  138.9586  162.6442 C.ar    1  UNL1        0.1640
      5 N         137.7577  139.3778  161.6918 N.ar    1  UNL1       -0.2234
      6 C         137.9006  140.8509  161.4481 C.ar    1  UNL1        0.1197
      7 C         139.0694  141.3422  162.2498 C.ar    1  UNL1        0.1037
      8 N         139.6488  140.1727  162.9890 N.ar    1  UNL1       -0.2096
      9 N         140.8099  140.0564  163.9315 N.ar    1  UNL1       -0.1489
     10 C         139.5706  142.7550  162.3029 C.ar    1  UNL1        0.0223
     11 C         138.6043  143.8872  162.4879 C.ar    1  UNL1        0.0017
     12 C         139.1056  145.3000  162.5410 C.ar    1  UNL1        0.0032
     13 C         140.5732  145.5805  162.4093 C.ar    1  UNL1        0.0372
     14 C         141.5395  144.4483  162.2244 C.ar    1  UNL1        0.1469
     15 C         141.0382  143.0355  162.1712 C.ar    1  UNL1        0.0387
     16 O         143.0072  144.7288  162.0926 O.3     1  UNL1       -0.4045
     17 C         144.0001  143.9026  162.8552 C.3     1  UNL1        0.5753
     18 F         144.9931  143.0763  163.6178 F       1  UNL1       -0.1328
     19 F         143.4713  144.4572  164.1446 F       1  UNL1       -0.1328
     20 F         144.5290  143.3480  161.5656 F       1  UNL1       -0.1328
     21 N         142.3214  138.6097  165.4718 N.pl3   1  UNL1       -0.3184
     22 H         142.9002  137.8138  165.4440 H       1  UNL1        0.1482
     23 C         143.1590  141.8987  168.4266 C.3     1  UNL1        0.1154
     24 C         143.2631  142.1684  166.9547 C.3     1  UNL1        0.0312
     25 C         142.9839  141.0720  165.9697 C.3     1  UNL1        0.0220
     26 C         142.6006  139.7060  166.4567 C.3     1  UNL1        0.0706
     27 C         142.4966  139.4364  167.9286 C.3     1  UNL1        0.0220
     28 C         142.7758  140.5327  168.9135 C.3     1  UNL1        0.0312
     29 C         142.6367  143.0895  170.6758 C.3     1  UNL1        0.1740
     30 O         143.4382  142.9951  169.4114 O.3     1  UNL1       -0.3536
@<TRIPOS>BOND
     1    29    30    1
     2    23    30    1
     3    23    24    1
     4    24    25    1
     5    25    26    1
     6    26    21    1
     7    21     1    1
     8     1     2   ar
     9     2     3   ar
    10     3     4   ar
    11     4     5   ar
    12     5     6   ar
    13     6     7   ar
    14     7    10    1
    15    10    11   ar
    16    11    12   ar
    17    12    13   ar
    18    13    14   ar
    19    14    16    1
    20    16    17    1
    21    17    18    1
    22    17    19    1
    23    17    20    1
    24    14    15   ar
    25     7     8   ar
    26     8     9   ar
    27    26    27    1
    28    27    28    1
    29    28    23    1
    30     9     1   ar
    31     8     4   ar
    32    15    10   ar
    33    21    22    1
@<TRIPOS>MOLECULE
*****
 30 33 0 0 0
SMALL
GASTEIGER

@<TRIPOS>ATOM
      1 C         143.2985  139.9133  164.9060 C.ar    1  UNL1        0.1488
      2 C         144.7210  139.7433  164.4614 C.ar    1  UNL1        0.0390
      3 C         145.2799  140.6234  163.3829 C.ar    1  UNL1        0.0417
      4 C         144.4164  141.6734  162.7491 C.ar    1  UNL1        0.1640
      5 N         144.6887  142.6807  161.6714 N.ar    1  UNL1       -0.2234
      6 C         143.4346  143.4731  161.4500 C.ar    1  UNL1        0.1197
      7 C         142.3871  142.9557  162.3908 C.ar    1  UNL1        0.1037
      8 N         142.9939  141.8434  163.1937 N.ar    1  UNL1       -0.2096
      9 N         142.4350  140.9633  164.2721 N.ar    1  UNL1       -0.1489
     10 C         140.9800  143.4617  162.5082 C.ar    1  UNL1        0.0223
     11 C         140.7200  144.9339  162.6300 C.ar    1  UNL1        0.0017
     12 C         139.3129  145.4399  162.7474 C.ar    1  UNL1        0.0032
     13 C         138.1655  144.4737  162.7429 C.ar    1  UNL1        0.0372
     14 C         138.4255  143.0014  162.6211 C.ar    1  UNL1        0.1469
     15 C         139.8326  142.4955  162.5037 C.ar    1  UNL1        0.0387
     16 O         137.2781  142.0351  162.6167 O.3     1  UNL1       -0.4045
     17 C         137.5404  140.5592  162.6716 C.3     1  UNL1        0.5753
     18 F         137.8026  139.0833  162.7266 F       1  UNL1       -0.1328
     19 F         137.4073  140.4800  161.1796 F       1  UNL1       -0.1328
     20 F         137.6734  140.6385  164.1636 F       1  UNL1       -0.1328
     21 N         142.7395  139.0332  165.9845 N.pl3   1  UNL1       -0.3184
     22 H         142.9252  138.0664  165.9765 H       1  UNL1        0.1482
     23 C         140.2140  140.8122  169.2566 C.3     1  UNL1        0.1154
     24 C         139.5636  140.2654  168.0206 C.3     1  UNL1        0.0312
     25 C         140.4055  139.6723  166.9298 C.3     1  UNL1        0.0220
     26 C         141.8977  139.6262  167.0752 C.3     1  UNL1        0.0706
     27 C         142.5481  140.1731  168.3113 C.3     1  UNL1        0.0220
     28 C         141.7063  140.7661  169.4020 C.3     1  UNL1        0.0312
     29 C         139.6426  142.7997  170.8294 C.3     1  UNL1        0.1740
     30 O         139.3722  141.4052  170.3473 O.3     1  UNL1       -0.3536
@<TRIPOS>BOND
     1    29    30    1
     2    23    30    1
     3    23    24    1
     4    24    25    1
     5    25    26    1
     6    26    21    1
     7    21     1    1
     8     1     2   ar
     9     2     3   ar
    10     3     4   ar
    11     4     5   ar
    12     5     6   ar
    13     6     7   ar
    14     7    10    1
    15    10    11   ar
    16    11    12   ar
    17    12    13   ar
    18    13    14   ar
    19    14    16    1
    20    16    17    1
    21    17    18    1
    22    17    19    1
    23    17    20    1
    24    14    15   ar
    25     7     8   ar
    26     8     9   ar
    27    26    27    1
    28    27    28    1
    29    28    23    1
    30     9     1   ar
    31     8     4   ar
    32    15    10   ar
    33    21    22    1
@<TRIPOS>MOLECULE
*****
 30 33 0 0 0
SMALL
GASTEIGER

@<TRIPOS>ATOM
      1 C         144.2825  141.4751  162.5411 C.ar    1  UNL1        0.1488
      2 C         145.3566  141.0470  163.4966 C.ar    1  UNL1        0.0390
      3 C         145.0797  139.9692  164.5024 C.ar    1  UNL1        0.0417
      4 C         143.7287  139.3194  164.5526 C.ar    1  UNL1        0.1640
      5 N         143.1668  138.2384  165.4278 N.ar    1  UNL1       -0.2234
      6 C         141.7454  137.9985  165.0131 C.ar    1  UNL1        0.1197
      7 C         141.4288  138.9311  163.8817 C.ar    1  UNL1        0.1037
      8 N         142.6546  139.7474  163.5971 N.ar    1  UNL1       -0.2096
      9 N         142.9315  140.8253  162.5914 N.ar    1  UNL1       -0.1489
     10 C         140.1168  139.0299  163.1613 C.ar    1  UNL1        0.0223
     11 C         139.6950  137.9421  162.2187 C.ar    1  UNL1        0.0017
     12 C         138.3830  138.0410  161.4983 C.ar    1  UNL1        0.0032
     13 C         137.4929  139.2276  161.7205 C.ar    1  UNL1        0.0372
     14 C         137.9147  140.3155  162.6632 C.ar    1  UNL1        0.1469
     15 C         139.2267  140.2166  163.3836 C.ar    1  UNL1        0.0387
     16 O         137.0246  141.5022  162.8855 O.3     1  UNL1       -0.4045
     17 C         137.6131  142.8807  162.9437 C.3     1  UNL1        0.5753
     18 F         138.2016  144.2593  163.0018 F       1  UNL1       -0.1328
     19 F         137.4361  142.8935  164.4331 F       1  UNL1       -0.1328
     20 F         137.7900  142.8680  161.4542 F       1  UNL1       -0.1328
     21 N         144.5594  142.5529  161.5353 N.pl3   1  UNL1       -0.3184
     22 H         145.4874  142.7664  161.2853 H       1  UNL1        0.1482
     23 C         141.1482  144.8110  159.6605 C.3     1  UNL1        0.1154
     24 C         141.3793  144.8941  161.1403 C.3     1  UNL1        0.0312
     25 C         142.5164  144.1414  161.7652 C.3     1  UNL1        0.0220
     26 C         143.4223  143.3056  160.9104 C.3     1  UNL1        0.0706
     27 C         143.1912  143.2226  159.4306 C.3     1  UNL1        0.0220
     28 C         142.0541  143.9753  158.8057 C.3     1  UNL1        0.0312
     29 C         140.1228  146.0536  157.6223 C.3     1  UNL1        0.1740
     30 O         140.0112  145.5637  159.0356 O.3     1  UNL1       -0.3536
@<TRIPOS>BOND
     1    29    30    1
     2    23    30    1
     3    23    24    1
     4    24    25    1
     5    25    26    1
     6    26    21    1
     7    21     1    1
     8     1     2   ar
     9     2     3   ar
    10     3     4   ar
    11     4     5   ar
    12     5     6   ar
    13     6     7   ar
    14     7    10    1
    15    10    11   ar
    16    11    12   ar
    17    12    13   ar
    18    13    14   ar
    19    14    16    1
    20    16    17    1
    21    17    18    1
    22    17    19    1
    23    17    20    1
    24    14    15   ar
    25     7     8   ar
    26     8     9   ar
    27    26    27    1
    28    27    28    1
    29    28    23    1
    30     9     1   ar
    31     8     4   ar
    32    15    10   ar
    33    21    22    1
