@<TRIPOS>MOLECULE
*****
 37 41 0 0 0
SMALL
GASTEIGER

@<TRIPOS>ATOM
      1 N         140.1397  138.2826  161.9808 N.3     1  UNL1       -0.2653
      2 C         140.4808  138.0825  163.4277 C.3     1  UNL1        0.1036
      3 C         141.7935  138.5721  163.9633 C.3     1  UNL1        0.1470
      4 C         143.1063  139.0618  164.4991 C.3     1  UNL1        0.1035
      5 N         144.0779  139.7514  163.5878 N.3     1  UNL1       -0.2673
      6 C         143.7367  139.9515  162.1409 C.3     1  UNL1        0.1035
      7 C         142.4240  139.4619  161.6052 C.3     1  UNL1        0.1470
      8 C         141.1112  138.9723  161.0695 C.3     1  UNL1        0.1036
      9 O         142.7651  139.2618  163.0521 O.3     1  UNL1       -0.3530
     10 C         138.8269  137.7929  161.4450 C.3     1  UNL1        0.1202
     11 C         137.6134  138.6718  161.5155 C.3     1  UNL1        0.2228
     12 O         137.7019  140.1081  161.0919 O.3     1  UNL1       -0.4717
     13 C         138.0106  143.3537  164.1936 C.ar    1  UNL1        0.0709
     14 C         137.8690  141.9219  164.6178 C.ar    1  UNL1        0.0135
     15 C         137.7660  140.8400  163.5839 C.ar    1  UNL1        0.0399
     16 C         137.8048  141.1899  162.1258 C.ar    1  UNL1        0.1659
     17 C         137.9465  142.6216  161.7016 C.ar    1  UNL1        0.1745
     18 F         137.9852  142.9715  160.2435 F       1  UNL1       -0.2009
     19 C         138.0494  143.7036  162.7355 C.ar    1  UNL1        0.0430
     20 N         138.2165  145.5174  166.2614 N.1     1  UNL1       -0.1908
     21 C         138.1136  144.4355  165.2275 C.1     1  UNL1        0.1005
     22 C         145.3906  140.2411  164.1235 C.3     1  UNL1        0.0913
     23 C         145.7679  141.6857  163.9787 C.3     1  UNL1        0.1087
     24 N         144.8860  142.7527  164.5563 N.3     1  UNL1       -0.1780
     25 H         145.5012  143.4952  164.8888 H       1  UNL1        0.1488
     26 S         143.8414  143.4064  163.7011 S.O2    1  UNL1        0.0603
     27 O         142.9263  143.4948  164.8864 O.2     1  UNL1       -0.1530
     28 O         144.7564  143.3181  162.5159 O.2     1  UNL1       -0.1530
     29 C         142.7967  144.0602  162.8459 C.ar    1  UNL1        0.1218
     30 C         141.8694  145.0779  163.4411 C.ar    1  UNL1        0.0230
     31 C         140.8248  145.7316  162.5859 C.ar    1  UNL1        0.0379
     32 C         140.7075  145.3677  161.1355 C.ar    1  UNL1        0.1347
     33 C         141.6349  144.3500  160.5403 C.ar    1  UNL1        0.0168
     34 C         142.6795  143.6963  161.3954 C.ar    1  UNL1        0.0187
     35 C         141.2834  144.1947  159.0903 C.3     1  UNL1        0.0768
     36 C         140.1389  145.1164  158.7894 C.3     1  UNL1        0.2102
     37 O         139.7830  145.8413  160.0534 O.3     1  UNL1       -0.4754
@<TRIPOS>BOND
     1    20    21    3
     2    21    13    1
     3    13    14   ar
     4    14    15   ar
     5    15    16   ar
     6    16    12    1
     7    12    11    1
     8    11    10    1
     9    10     1    1
    10     1     2    1
    11     2     3    1
    12     3     4    1
    13     4     5    1
    14     5    22    1
    15    22    23    1
    16    23    24    1
    17    24    26    1
    18    26    27    2
    19    26    28    2
    20    26    29    1
    21    29    30   ar
    22    30    31   ar
    23    31    32   ar
    24    32    33   ar
    25    33    34   ar
    26    33    35    1
    27    35    36    1
    28    36    37    1
    29     5     6    1
    30     6     7    1
    31     7     8    1
    32     7     9    1
    33    16    17   ar
    34    17    18    1
    35    17    19   ar
    36    19    13   ar
    37     8     1    1
    38     9     3    1
    39    34    29   ar
    40    37    32    1
    41    24    25    1
@<TRIPOS>MOLECULE
*****
 37 41 0 0 0
SMALL
GASTEIGER

@<TRIPOS>ATOM
      1 N         144.1527  141.3295  161.9112 N.3     1  UNL1       -0.2653
      2 C         143.1768  142.3329  161.3720 C.3     1  UNL1        0.1036
      3 C         141.8699  141.8737  160.7966 C.3     1  UNL1        0.1470
      4 C         140.5629  141.4146  160.2212 C.3     1  UNL1        0.1035
      5 N         140.2319  139.9520  160.1850 N.3     1  UNL1       -0.2673
      6 C         141.2078  138.9486  160.7243 C.3     1  UNL1        0.1035
      7 C         142.5147  139.4078  161.2996 C.3     1  UNL1        0.1470
      8 C         143.8216  139.8669  161.8750 C.3     1  UNL1        0.1036
      9 O         141.5388  140.4112  160.7604 O.3     1  UNL1       -0.3530
     10 C         145.4596  141.7887  162.4866 C.3     1  UNL1        0.1202
     11 C         145.6298  141.8914  163.9733 C.3     1  UNL1        0.2228
     12 O         145.1201  143.0977  164.7050 O.3     1  UNL1       -0.4717
     13 C         140.7075  143.9749  164.7982 C.ar    1  UNL1        0.0709
     14 C         141.2495  142.7771  165.5205 C.ar    1  UNL1        0.0135
     15 C         142.7204  142.4847  165.4894 C.ar    1  UNL1        0.0399
     16 C         143.6493  143.3901  164.7361 C.ar    1  UNL1        0.1659
     17 C         143.1073  144.5878  164.0139 C.ar    1  UNL1        0.1745
     18 F         144.0362  145.4932  163.2606 F       1  UNL1       -0.2009
     19 C         141.6364  144.8802  164.0449 C.ar    1  UNL1        0.0430
     20 N         137.7657  144.5596  164.8604 N.1     1  UNL1       -0.1908
     21 C         139.2366  144.2673  164.8293 C.1     1  UNL1        0.1005
     22 C         138.9249  139.4928  159.6096 C.3     1  UNL1        0.0913
     23 C         137.6618  139.6411  160.4050 C.3     1  UNL1        0.1087
     24 N         137.4132  138.7554  161.5898 N.3     1  UNL1       -0.1780
     25 H         137.5982  137.7993  161.2866 H       1  UNL1        0.1488
     26 S         138.1863  138.9648  162.8580 S.O2    1  UNL1        0.0603
     27 O         138.6653  137.5445  162.8004 O.2     1  UNL1       -0.1530
     28 O         137.7074  140.3850  162.9155 O.2     1  UNL1       -0.1530
     29 C         138.9595  139.1742  164.1263 C.ar    1  UNL1        0.1218
     30 C         138.2847  139.7696  165.3263 C.ar    1  UNL1        0.0230
     31 C         139.0578  139.9790  166.5946 C.ar    1  UNL1        0.0379
     32 C         140.5056  139.5930  166.6627 C.ar    1  UNL1        0.1347
     33 C         141.1804  138.9975  165.4627 C.ar    1  UNL1        0.0168
     34 C         140.4073  138.7881  164.1945 C.ar    1  UNL1        0.0187
     35 C         142.6084  138.7165  165.8257 C.3     1  UNL1        0.0768
     36 C         142.8163  139.1383  167.2501 C.3     1  UNL1        0.2102
     37 O         141.5167  139.6800  167.7674 O.3     1  UNL1       -0.4754
@<TRIPOS>BOND
     1    20    21    3
     2    21    13    1
     3    13    14   ar
     4    14    15   ar
     5    15    16   ar
     6    16    12    1
     7    12    11    1
     8    11    10    1
     9    10     1    1
    10     1     2    1
    11     2     3    1
    12     3     4    1
    13     4     5    1
    14     5    22    1
    15    22    23    1
    16    23    24    1
    17    24    26    1
    18    26    27    2
    19    26    28    2
    20    26    29    1
    21    29    30   ar
    22    30    31   ar
    23    31    32   ar
    24    32    33   ar
    25    33    34   ar
    26    33    35    1
    27    35    36    1
    28    36    37    1
    29     5     6    1
    30     6     7    1
    31     7     8    1
    32     7     9    1
    33    16    17   ar
    34    17    18    1
    35    17    19   ar
    36    19    13   ar
    37     8     1    1
    38     9     3    1
    39    34    29   ar
    40    37    32    1
    41    24    25    1
@<TRIPOS>MOLECULE
*****
 37 41 0 0 0
SMALL
GASTEIGER

@<TRIPOS>ATOM
      1 N         142.4408  139.9729  159.8017 N.3     1  UNL1       -0.2653
      2 C         140.9547  140.1754  159.8260 C.3     1  UNL1        0.1036
      3 C         140.3881  141.5431  160.0674 C.3     1  UNL1        0.1470
      4 C         139.8214  142.9108  160.3088 C.3     1  UNL1        0.1035
      5 N         140.7408  144.0760  160.5259 N.3     1  UNL1       -0.2673
      6 C         142.2269  143.8734  160.5016 C.3     1  UNL1        0.1035
      7 C         142.7935  142.5057  160.2602 C.3     1  UNL1        0.1470
      8 C         143.3602  141.1381  160.0188 C.3     1  UNL1        0.1036
      9 O         141.3075  142.7083  160.2845 O.3     1  UNL1       -0.3530
     10 C         143.0075  138.6052  159.5603 C.3     1  UNL1        0.1202
     11 C         142.8737  137.5419  160.6098 C.3     1  UNL1        0.2228
     12 O         143.1362  137.8717  162.0494 O.3     1  UNL1       -0.4717
     13 C         139.7059  138.2091  164.9423 C.ar    1  UNL1        0.0709
     14 C         139.4606  137.7369  163.5399 C.ar    1  UNL1        0.0135
     15 C         140.6041  137.6244  162.5756 C.ar    1  UNL1        0.0399
     16 C         141.9928  137.9842  163.0137 C.ar    1  UNL1        0.1659
     17 C         142.2382  138.4564  164.4161 C.ar    1  UNL1        0.1745
     18 F         143.6269  138.8162  164.8542 F       1  UNL1       -0.2009
     19 C         141.0947  138.5689  165.3805 C.ar    1  UNL1        0.0430
     20 N         137.4191  138.4340  166.8709 N.1     1  UNL1       -0.1908
     21 C         138.5625  138.3216  165.9066 C.1     1  UNL1        0.1005
     22 C         140.1741  145.4437  160.7673 C.3     1  UNL1        0.0913
     23 C         140.1998  146.0335  162.1463 C.3     1  UNL1        0.1087
     24 N         139.4526  145.3651  163.2620 N.3     1  UNL1       -0.1780
     25 H         138.6862  144.8460  162.8335 H       1  UNL1        0.1488
     26 S         140.1640  144.4116  164.1755 S.O2    1  UNL1        0.0603
     27 O         138.8881  143.6478  164.3719 O.2     1  UNL1       -0.1530
     28 O         141.4399  145.1754  163.9791 O.2     1  UNL1       -0.1530
     29 C         140.8756  143.4580  165.0891 C.ar    1  UNL1        0.1218
     30 C         142.3467  143.2166  164.9228 C.ar    1  UNL1        0.0230
     31 C         143.0582  142.2631  165.8363 C.ar    1  UNL1        0.0379
     32 C         142.2987  141.5511  166.9161 C.ar    1  UNL1        0.1347
     33 C         140.8276  141.7925  167.0824 C.ar    1  UNL1        0.0168
     34 C         140.1161  142.7460  166.1689 C.ar    1  UNL1        0.0187
     35 C         140.3467  140.9526  168.2284 C.3     1  UNL1        0.0768
     36 C         141.5205  140.1920  168.7703 C.3     1  UNL1        0.2102
     37 O         142.7269  140.5619  167.9592 O.3     1  UNL1       -0.4754
@<TRIPOS>BOND
     1    20    21    3
     2    21    13    1
     3    13    14   ar
     4    14    15   ar
     5    15    16   ar
     6    16    12    1
     7    12    11    1
     8    11    10    1
     9    10     1    1
    10     1     2    1
    11     2     3    1
    12     3     4    1
    13     4     5    1
    14     5    22    1
    15    22    23    1
    16    23    24    1
    17    24    26    1
    18    26    27    2
    19    26    28    2
    20    26    29    1
    21    29    30   ar
    22    30    31   ar
    23    31    32   ar
    24    32    33   ar
    25    33    34   ar
    26    33    35    1
    27    35    36    1
    28    36    37    1
    29     5     6    1
    30     6     7    1
    31     7     8    1
    32     7     9    1
    33    16    17   ar
    34    17    18    1
    35    17    19   ar
    36    19    13   ar
    37     8     1    1
    38     9     3    1
    39    34    29   ar
    40    37    32    1
    41    24    25    1
@<TRIPOS>MOLECULE
*****
 37 41 0 0 0
SMALL
GASTEIGER

@<TRIPOS>ATOM
      1 N         138.7846  139.0172  162.8693 N.3     1  UNL1       -0.2653
      2 C         139.4885  138.9532  161.5463 C.3     1  UNL1        0.1036
      3 C         139.7571  140.2131  160.7780 C.3     1  UNL1        0.1470
      4 C         140.0257  141.4731  160.0096 C.3     1  UNL1        0.1035
      5 N         139.5904  142.7971  160.5643 N.3     1  UNL1       -0.2673
      6 C         138.8865  142.8610  161.8874 C.3     1  UNL1        0.1035
      7 C         138.6179  141.6011  162.6557 C.3     1  UNL1        0.1470
      8 C         138.3493  140.3412  163.4240 C.3     1  UNL1        0.1036
      9 O         139.3218  141.5371  161.3327 O.3     1  UNL1       -0.3530
     10 C         138.5160  137.7573  163.6378 C.3     1  UNL1        0.1202
     11 C         139.3065  137.4503  164.8750 C.3     1  UNL1        0.2228
     12 O         140.7149  136.9470  164.7595 O.3     1  UNL1       -0.4717
     13 C         144.0417  139.7902  163.7115 C.ar    1  UNL1        0.0709
     14 C         143.5016  138.8522  162.6729 C.ar    1  UNL1        0.0135
     15 C         142.3927  137.9045  163.0223 C.ar    1  UNL1        0.0399
     16 C         141.8238  137.8947  164.4102 C.ar    1  UNL1        0.1659
     17 C         142.3639  138.8325  165.4488 C.ar    1  UNL1        0.1745
     18 F         141.7950  138.8227  166.8367 F       1  UNL1       -0.2009
     19 C         143.4728  139.7803  165.0995 C.ar    1  UNL1        0.0430
     20 N         146.2596  141.6856  163.0129 N.1     1  UNL1       -0.1908
     21 C         145.1506  140.7379  163.3622 C.1     1  UNL1        0.1005
     22 C         139.8590  144.0570  159.7959 C.3     1  UNL1        0.0913
     23 C         140.4533  145.2466  160.4901 C.3     1  UNL1        0.1087
     24 N         141.8890  145.2220  160.9237 N.3     1  UNL1       -0.1780
     25 H         142.2201  146.1865  160.9007 H       1  UNL1        0.1488
     26 S         142.2568  144.6699  162.2690 S.O2    1  UNL1        0.0603
     27 O         143.4689  144.0196  161.6708 O.2     1  UNL1       -0.1530
     28 O         141.0447  145.3202  162.8672 O.2     1  UNL1       -0.1530
     29 C         142.6246  144.1178  163.6144 C.ar    1  UNL1        0.1218
     30 C         144.0419  144.2026  164.0980 C.ar    1  UNL1        0.0230
     31 C         144.4097  143.6505  165.4433 C.ar    1  UNL1        0.0379
     32 C         143.3601  143.0137  166.3050 C.ar    1  UNL1        0.1347
     33 C         141.9427  142.9289  165.8215 C.ar    1  UNL1        0.0168
     34 C         141.5750  143.4809  164.4762 C.ar    1  UNL1        0.0187
     35 C         141.1304  142.2498  166.8840 C.3     1  UNL1        0.0768
     36 C         142.0456  141.9149  168.0242 C.3     1  UNL1        0.2102
     37 O         143.4237  142.3870  167.6664 O.3     1  UNL1       -0.4754
@<TRIPOS>BOND
     1    20    21    3
     2    21    13    1
     3    13    14   ar
     4    14    15   ar
     5    15    16   ar
     6    16    12    1
     7    12    11    1
     8    11    10    1
     9    10     1    1
    10     1     2    1
    11     2     3    1
    12     3     4    1
    13     4     5    1
    14     5    22    1
    15    22    23    1
    16    23    24    1
    17    24    26    1
    18    26    27    2
    19    26    28    2
    20    26    29    1
    21    29    30   ar
    22    30    31   ar
    23    31    32   ar
    24    32    33   ar
    25    33    34   ar
    26    33    35    1
    27    35    36    1
    28    36    37    1
    29     5     6    1
    30     6     7    1
    31     7     8    1
    32     7     9    1
    33    16    17   ar
    34    17    18    1
    35    17    19   ar
    36    19    13   ar
    37     8     1    1
    38     9     3    1
    39    34    29   ar
    40    37    32    1
    41    24    25    1
@<TRIPOS>MOLECULE
*****
 37 41 0 0 0
SMALL
GASTEIGER

@<TRIPOS>ATOM
      1 N         142.3643  140.2288  159.2235 N.3     1  UNL1       -0.2653
      2 C         141.0245  140.7071  158.7482 C.3     1  UNL1        0.1036
      3 C         140.5283  142.0653  159.1470 C.3     1  UNL1        0.1470
      4 C         140.0320  143.4235  159.5458 C.3     1  UNL1        0.1035
      5 N         140.8756  144.3034  160.4200 N.3     1  UNL1       -0.2673
      6 C         142.2155  143.8250  160.8953 C.3     1  UNL1        0.1035
      7 C         142.7117  142.4669  160.4965 C.3     1  UNL1        0.1470
      8 C         143.2080  141.1087  160.0976 C.3     1  UNL1        0.1036
      9 O         141.3719  142.9452  160.0212 O.3     1  UNL1       -0.3530
     10 C         142.8606  138.8706  158.8247 C.3     1  UNL1        0.1202
     11 C         142.9674  137.7805  159.8494 C.3     1  UNL1        0.2228
     12 O         141.8688  137.5827  160.8514 O.3     1  UNL1       -0.4717
     13 C         142.5648  138.5895  165.1817 C.ar    1  UNL1        0.0709
     14 C         143.6403  138.8498  164.1689 C.ar    1  UNL1        0.0135
     15 C         143.4082  138.5142  162.7255 C.ar    1  UNL1        0.0399
     16 C         142.1008  137.9183  162.2948 C.ar    1  UNL1        0.1659
     17 C         141.0254  137.6580  163.3075 C.ar    1  UNL1        0.1745
     18 F         139.7179  137.0621  162.8768 F       1  UNL1       -0.2009
     19 C         141.2573  137.9936  164.7510 C.ar    1  UNL1        0.0430
     20 N         143.0288  139.2608  168.0686 N.1     1  UNL1       -0.1908
     21 C         142.7968  138.9251  166.6251 C.1     1  UNL1        0.1005
     22 C         140.3794  145.6616  160.8188 C.3     1  UNL1        0.0913
     23 C         139.6545  145.8431  162.1194 C.3     1  UNL1        0.1087
     24 N         140.3905  145.6843  163.4168 N.3     1  UNL1       -0.1780
     25 H         140.1339  146.4807  164.0002 H       1  UNL1        0.1488
     26 S         140.1856  144.4536  164.2494 S.O2    1  UNL1        0.0603
     27 O         141.6654  144.2086  164.2513 O.2     1  UNL1       -0.1530
     28 O         138.7058  144.6987  164.2475 O.2     1  UNL1       -0.1530
     29 C         139.9807  143.2229  165.0821 C.ar    1  UNL1        0.1218
     30 C         140.7152  143.0649  166.3804 C.ar    1  UNL1        0.0230
     31 C         140.5103  141.8342  167.2131 C.ar    1  UNL1        0.0379
     32 C         139.5710  140.7615  166.7475 C.ar    1  UNL1        0.1347
     33 C         138.8365  140.9195  165.4492 C.ar    1  UNL1        0.0168
     34 C         139.0413  142.1502  164.6165 C.ar    1  UNL1        0.0187
     35 C         137.9812  139.7035  165.2496 C.3     1  UNL1        0.0768
     36 C         138.1871  138.7940  166.4245 C.3     1  UNL1        0.2102
     37 O         139.1696  139.4479  167.3502 O.3     1  UNL1       -0.4754
@<TRIPOS>BOND
     1    20    21    3
     2    21    13    1
     3    13    14   ar
     4    14    15   ar
     5    15    16   ar
     6    16    12    1
     7    12    11    1
     8    11    10    1
     9    10     1    1
    10     1     2    1
    11     2     3    1
    12     3     4    1
    13     4     5    1
    14     5    22    1
    15    22    23    1
    16    23    24    1
    17    24    26    1
    18    26    27    2
    19    26    28    2
    20    26    29    1
    21    29    30   ar
    22    30    31   ar
    23    31    32   ar
    24    32    33   ar
    25    33    34   ar
    26    33    35    1
    27    35    36    1
    28    36    37    1
    29     5     6    1
    30     6     7    1
    31     7     8    1
    32     7     9    1
    33    16    17   ar
    34    17    18    1
    35    17    19   ar
    36    19    13   ar
    37     8     1    1
    38     9     3    1
    39    34    29   ar
    40    37    32    1
    41    24    25    1
@<TRIPOS>MOLECULE
*****
 37 41 0 0 0
SMALL
GASTEIGER

@<TRIPOS>ATOM
      1 N         139.3368  137.6948  164.4950 N.3     1  UNL1       -0.2653
      2 C         138.7990  138.1042  163.1560 C.3     1  UNL1        0.1036
      3 C         139.7337  138.2919  161.9979 C.3     1  UNL1        0.1470
      4 C         140.6684  138.4795  160.8398 C.3     1  UNL1        0.1035
      5 N         142.1408  138.2577  161.0207 N.3     1  UNL1       -0.2673
      6 C         142.6785  137.8482  162.3599 C.3     1  UNL1        0.1035
      7 C         141.7439  137.6606  163.5180 C.3     1  UNL1        0.1470
      8 C         140.8092  137.4730  164.6760 C.3     1  UNL1        0.1036
      9 O         141.2061  138.0700  162.1789 O.3     1  UNL1       -0.3530
     10 C         138.4021  137.5072  165.6532 C.3     1  UNL1        0.1202
     11 C         138.0087  138.6828  166.4976 C.3     1  UNL1        0.2228
     12 O         138.9282  139.1720  167.5772 O.3     1  UNL1       -0.4717
     13 C         142.3917  141.8512  166.5400 C.ar    1  UNL1        0.0709
     14 C         141.1853  141.8062  165.6497 C.ar    1  UNL1        0.0135
     15 C         140.0308  140.9132  165.9954 C.ar    1  UNL1        0.0399
     16 C         140.0826  140.0650  167.2315 C.ar    1  UNL1        0.1659
     17 C         141.2889  140.1099  168.1218 C.ar    1  UNL1        0.1745
     18 F         141.3408  139.2617  169.3579 F       1  UNL1       -0.2009
     19 C         142.4435  141.0030  167.7761 C.ar    1  UNL1        0.0430
     20 N         144.7007  143.6373  165.8486 N.1     1  UNL1       -0.1908
     21 C         143.5462  142.7442  166.1943 C.1     1  UNL1        0.1005
     22 C         143.0754  138.4453  159.8627 C.3     1  UNL1        0.0913
     23 C         143.6953  139.7875  159.6089 C.3     1  UNL1        0.1087
     24 N         144.0865  140.6631  160.7623 N.3     1  UNL1       -0.1780
     25 H         144.8570  141.2484  160.4395 H       1  UNL1        0.1488
     26 S         143.0759  141.5812  161.3834 S.O2    1  UNL1        0.0603
     27 O         143.5787  141.2119  162.7474 O.2     1  UNL1       -0.1530
     28 O         142.5731  141.9506  160.0193 O.2     1  UNL1       -0.1530
     29 C         142.0653  142.4994  162.0044 C.ar    1  UNL1        0.1218
     30 C         142.5167  143.7415  162.7141 C.ar    1  UNL1        0.0230
     31 C         141.5062  144.6596  163.3351 C.ar    1  UNL1        0.0379
     32 C         140.0443  144.3358  163.2466 C.ar    1  UNL1        0.1347
     33 C         139.5929  143.0937  162.5369 C.ar    1  UNL1        0.0168
     34 C         140.6034  142.1755  161.9159 C.ar    1  UNL1        0.0187
     35 C         138.0958  143.0362  162.6101 C.3     1  UNL1        0.0768
     36 C         137.6219  144.2427  163.3649 C.3     1  UNL1        0.2102
     37 O         138.8261  145.0459  163.7582 O.3     1  UNL1       -0.4754
@<TRIPOS>BOND
     1    20    21    3
     2    21    13    1
     3    13    14   ar
     4    14    15   ar
     5    15    16   ar
     6    16    12    1
     7    12    11    1
     8    11    10    1
     9    10     1    1
    10     1     2    1
    11     2     3    1
    12     3     4    1
    13     4     5    1
    14     5    22    1
    15    22    23    1
    16    23    24    1
    17    24    26    1
    18    26    27    2
    19    26    28    2
    20    26    29    1
    21    29    30   ar
    22    30    31   ar
    23    31    32   ar
    24    32    33   ar
    25    33    34   ar
    26    33    35    1
    27    35    36    1
    28    36    37    1
    29     5     6    1
    30     6     7    1
    31     7     8    1
    32     7     9    1
    33    16    17   ar
    34    17    18    1
    35    17    19   ar
    36    19    13   ar
    37     8     1    1
    38     9     3    1
    39    34    29   ar
    40    37    32    1
    41    24    25    1
@<TRIPOS>MOLECULE
*****
 37 41 0 0 0
SMALL
GASTEIGER

@<TRIPOS>ATOM
      1 N         139.5834  137.7519  164.2266 N.3     1  UNL1       -0.2653
      2 C         141.0681  137.5388  164.2392 C.3     1  UNL1        0.1036
      3 C         141.8599  137.7027  162.9758 C.3     1  UNL1        0.1470
      4 C         142.6518  137.8665  161.7124 C.3     1  UNL1        0.1035
      5 N         141.9590  138.2434  160.4365 N.3     1  UNL1       -0.2673
      6 C         140.4742  138.4564  160.4241 C.3     1  UNL1        0.1035
      7 C         139.6823  138.2926  161.6874 C.3     1  UNL1        0.1470
      8 C         138.8905  138.1288  162.9507 C.3     1  UNL1        0.1036
      9 O         141.1671  138.0795  161.6999 O.3     1  UNL1       -0.3530
     10 C         138.7914  137.5880  165.4900 C.3     1  UNL1        0.1202
     11 C         138.1797  138.7867  166.1525 C.3     1  UNL1        0.2228
     12 O         138.2294  138.9255  167.6453 O.3     1  UNL1       -0.4717
     13 C         141.1373  141.7875  169.5435 C.ar    1  UNL1        0.0709
     14 C         141.3901  141.2699  168.1584 C.ar    1  UNL1        0.0135
     15 C         140.4208  140.3160  167.5257 C.ar    1  UNL1        0.0399
     16 C         139.1987  139.8795  168.2780 C.ar    1  UNL1        0.1659
     17 C         138.9459  140.3970  169.6630 C.ar    1  UNL1        0.1745
     18 F         137.7237  139.9605  170.4153 F       1  UNL1       -0.2009
     19 C         139.9152  141.3510  170.2958 C.ar    1  UNL1        0.0430
     20 N         143.0759  143.6954  170.8089 N.1     1  UNL1       -0.1908
     21 C         142.1066  142.7414  170.1762 C.1     1  UNL1        0.1005
     22 C         142.7508  138.4072  159.1732 C.3     1  UNL1        0.0913
     23 C         142.0635  138.3314  157.8420 C.3     1  UNL1        0.1087
     24 N         142.8069  137.8247  156.6419 N.3     1  UNL1       -0.1780
     25 H         143.7861  138.0783  156.7733 H       1  UNL1        0.1488
     26 S         142.7797  136.3634  156.3047 S.O2    1  UNL1        0.0603
     27 O         141.3037  136.3297  156.5699 O.2     1  UNL1       -0.1530
     28 O         144.2556  136.3971  156.0394 O.2     1  UNL1       -0.1530
     29 C         142.7525  134.9020  155.9675 C.ar    1  UNL1        0.1218
     30 C         141.5286  134.2987  155.3444 C.ar    1  UNL1        0.0230
     31 C         141.5013  132.8374  155.0071 C.ar    1  UNL1        0.0379
     32 C         142.6980  131.9793  155.2930 C.ar    1  UNL1        0.1347
     33 C         143.9218  132.5826  155.9161 C.ar    1  UNL1        0.0168
     34 C         143.9491  134.0439  156.2533 C.ar    1  UNL1        0.0187
     35 C         144.9421  131.4954  156.0804 C.3     1  UNL1        0.0768
     36 C         144.3489  130.2202  155.5589 C.3     1  UNL1        0.2102
     37 O         142.9619  130.5193  155.0723 O.3     1  UNL1       -0.4754
@<TRIPOS>BOND
     1    20    21    3
     2    21    13    1
     3    13    14   ar
     4    14    15   ar
     5    15    16   ar
     6    16    12    1
     7    12    11    1
     8    11    10    1
     9    10     1    1
    10     1     2    1
    11     2     3    1
    12     3     4    1
    13     4     5    1
    14     5    22    1
    15    22    23    1
    16    23    24    1
    17    24    26    1
    18    26    27    2
    19    26    28    2
    20    26    29    1
    21    29    30   ar
    22    30    31   ar
    23    31    32   ar
    24    32    33   ar
    25    33    34   ar
    26    33    35    1
    27    35    36    1
    28    36    37    1
    29     5     6    1
    30     6     7    1
    31     7     8    1
    32     7     9    1
    33    16    17   ar
    34    17    18    1
    35    17    19   ar
    36    19    13   ar
    37     8     1    1
    38     9     3    1
    39    34    29   ar
    40    37    32    1
    41    24    25    1
@<TRIPOS>MOLECULE
*****
 37 41 0 0 0
SMALL
GASTEIGER

@<TRIPOS>ATOM
      1 N         144.3509  139.6836  163.9362 N.3     1  UNL1       -0.2653
      2 C         144.8492  141.0910  163.7920 C.3     1  UNL1        0.1036
      3 C         144.8165  141.7645  162.4521 C.3     1  UNL1        0.1470
      4 C         144.7838  142.4381  161.1122 C.3     1  UNL1        0.1035
      5 N         144.2528  141.7042  159.9166 N.3     1  UNL1       -0.2673
      6 C         143.7545  140.2967  160.0609 C.3     1  UNL1        0.1035
      7 C         143.7872  139.6232  161.4008 C.3     1  UNL1        0.1470
      8 C         143.8199  138.9497  162.7406 C.3     1  UNL1        0.1036
      9 O         144.2855  141.0306  161.2565 O.3     1  UNL1       -0.3530
     10 C         144.3836  139.0100  165.2761 C.3     1  UNL1        0.1202
     11 C         143.1724  138.2823  165.7795 C.3     1  UNL1        0.2228
     12 O         141.8218  138.9304  165.7015 O.3     1  UNL1       -0.4717
     13 C         140.8064  142.3523  168.4418 C.ar    1  UNL1        0.0709
     14 C         141.3425  141.0711  169.0087 C.ar    1  UNL1        0.0135
     15 C         141.6810  139.9305  168.0952 C.ar    1  UNL1        0.0399
     16 C         141.4833  140.0710  166.6149 C.ar    1  UNL1        0.1659
     17 C         140.9472  141.3521  166.0481 C.ar    1  UNL1        0.1745
     18 F         140.7495  141.4925  164.5679 F       1  UNL1       -0.2009
     19 C         140.6087  142.4927  166.9616 C.ar    1  UNL1        0.0430
     20 N         140.1294  144.6335  170.2687 N.1     1  UNL1       -0.1908
     21 C         140.4679  143.4929  169.3553 C.1     1  UNL1        0.1005
     22 C         144.2200  142.3777  158.5768 C.3     1  UNL1        0.0913
     23 C         142.9257  142.4949  157.8276 C.3     1  UNL1        0.1087
     24 N         142.0084  143.6519  158.0919 N.3     1  UNL1       -0.1780
     25 H         141.1879  143.5181  157.5008 H       1  UNL1        0.1488
     26 S         141.5041  143.9071  159.4813 S.O2    1  UNL1        0.0603
     27 O         142.0803  145.2912  159.4362 O.2     1  UNL1       -0.1530
     28 O         140.9280  142.5229  159.5264 O.2     1  UNL1       -0.1530
     29 C         140.9999  144.1622  160.8708 C.ar    1  UNL1        0.1218
     30 C         141.9023  144.7869  161.8932 C.ar    1  UNL1        0.0230
     31 C         141.3981  145.0421  163.2827 C.ar    1  UNL1        0.0379
     32 C         139.9915  144.6725  163.6498 C.ar    1  UNL1        0.1347
     33 C         139.0891  144.0478  162.6273 C.ar    1  UNL1        0.0168
     34 C         139.5933  143.7926  161.2379 C.ar    1  UNL1        0.0187
     35 C         137.7610  143.7919  163.2759 C.3     1  UNL1        0.0768
     36 C         137.8426  144.2585  164.6992 C.3     1  UNL1        0.2102
     37 O         139.2211  144.8027  164.9302 O.3     1  UNL1       -0.4754
@<TRIPOS>BOND
     1    20    21    3
     2    21    13    1
     3    13    14   ar
     4    14    15   ar
     5    15    16   ar
     6    16    12    1
     7    12    11    1
     8    11    10    1
     9    10     1    1
    10     1     2    1
    11     2     3    1
    12     3     4    1
    13     4     5    1
    14     5    22    1
    15    22    23    1
    16    23    24    1
    17    24    26    1
    18    26    27    2
    19    26    28    2
    20    26    29    1
    21    29    30   ar
    22    30    31   ar
    23    31    32   ar
    24    32    33   ar
    25    33    34   ar
    26    33    35    1
    27    35    36    1
    28    36    37    1
    29     5     6    1
    30     6     7    1
    31     7     8    1
    32     7     9    1
    33    16    17   ar
    34    17    18    1
    35    17    19   ar
    36    19    13   ar
    37     8     1    1
    38     9     3    1
    39    34    29   ar
    40    37    32    1
    41    24    25    1
@<TRIPOS>MOLECULE
*****
 37 41 0 0 0
SMALL
GASTEIGER

@<TRIPOS>ATOM
      1 N         140.5985  144.0975  161.4378 N.3     1  UNL1       -0.2653
      2 C         139.8999  142.9285  160.8092 C.3     1  UNL1        0.1036
      3 C         140.6686  141.6828  160.4818 C.3     1  UNL1        0.1470
      4 C         141.4373  140.4370  160.1545 C.3     1  UNL1        0.1035
      5 N         142.9047  140.3602  160.4558 N.3     1  UNL1       -0.2673
      6 C         143.6034  141.5293  161.0844 C.3     1  UNL1        0.1035
      7 C         142.8347  142.7751  161.4118 C.3     1  UNL1        0.1470
      8 C         142.0660  144.0208  161.7391 C.3     1  UNL1        0.1036
      9 O         142.1360  141.6061  160.7831 O.3     1  UNL1       -0.3530
     10 C         139.8298  145.3433  161.7652 C.3     1  UNL1        0.1202
     11 C         138.6424  145.2735  162.6790 C.3     1  UNL1        0.2228
     12 O         138.8083  144.7881  164.0886 O.3     1  UNL1       -0.4717
     13 C         138.5881  140.3855  164.9930 C.ar    1  UNL1        0.0709
     14 C         137.7036  140.9794  163.9370 C.ar    1  UNL1        0.0135
     15 C         137.7770  142.4470  163.6356 C.ar    1  UNL1        0.0399
     16 C         138.7349  143.3206  164.3901 C.ar    1  UNL1        0.1659
     17 C         139.6193  142.7267  165.4460 C.ar    1  UNL1        0.1745
     18 F         140.5772  143.6004  166.2005 F       1  UNL1       -0.2009
     19 C         139.5459  141.2591  165.7475 C.ar    1  UNL1        0.0430
     20 N         138.4412  137.4504  165.5959 N.1     1  UNL1       -0.1908
     21 C         138.5146  138.9179  165.2944 C.1     1  UNL1        0.1005
     22 C         143.6735  139.1145  160.1284 C.3     1  UNL1        0.0913
     23 C         144.0297  138.1453  161.2165 C.3     1  UNL1        0.1087
     24 N         143.0462  137.8509  162.3102 N.3     1  UNL1       -0.1780
     25 H         143.2225  136.8936  162.6149 H       1  UNL1        0.1488
     26 S         143.0220  138.7010  163.5457 S.O2    1  UNL1        0.0603
     27 O         141.5496  138.4524  163.6879 O.2     1  UNL1       -0.1530
     28 O         144.4944  138.9496  163.4036 O.2     1  UNL1       -0.1530
     29 C         142.9978  139.5512  164.7814 C.ar    1  UNL1        0.1218
     30 C         143.3071  141.0161  164.6900 C.ar    1  UNL1        0.0230
     31 C         143.2829  141.8663  165.9255 C.ar    1  UNL1        0.0379
     32 C         142.9494  141.2515  167.2524 C.ar    1  UNL1        0.1347
     33 C         142.6400  139.7866  167.3438 C.ar    1  UNL1        0.0168
     34 C         142.6642  138.9365  166.1083 C.ar    1  UNL1        0.0187
     35 C         142.3480  139.4632  168.7792 C.3     1  UNL1        0.0768
     36 C         142.4769  140.7282  169.5749 C.3     1  UNL1        0.2102
     37 O         142.8485  141.8335  168.6313 O.3     1  UNL1       -0.4754
@<TRIPOS>BOND
     1    20    21    3
     2    21    13    1
     3    13    14   ar
     4    14    15   ar
     5    15    16   ar
     6    16    12    1
     7    12    11    1
     8    11    10    1
     9    10     1    1
    10     1     2    1
    11     2     3    1
    12     3     4    1
    13     4     5    1
    14     5    22    1
    15    22    23    1
    16    23    24    1
    17    24    26    1
    18    26    27    2
    19    26    28    2
    20    26    29    1
    21    29    30   ar
    22    30    31   ar
    23    31    32   ar
    24    32    33   ar
    25    33    34   ar
    26    33    35    1
    27    35    36    1
    28    36    37    1
    29     5     6    1
    30     6     7    1
    31     7     8    1
    32     7     9    1
    33    16    17   ar
    34    17    18    1
    35    17    19   ar
    36    19    13   ar
    37     8     1    1
    38     9     3    1
    39    34    29   ar
    40    37    32    1
    41    24    25    1
