@<TRIPOS>MOLECULE
*****
 21 24 0 0 0
SMALL
GASTEIGER

@<TRIPOS>ATOM
      1 C         140.1793  144.0329  164.1145 C.ar    1  UNL1        0.1401
      2 N         139.2145  145.1099  163.7157 N.ar    1  UNL1       -0.2154
      3 C         139.4681  145.4499  162.2769 C.ar    1  UNL1        0.1833
      4 N         140.5896  144.5830  161.7865 N.ar    1  UNL1       -0.2847
      5 C         141.0292  143.7072  162.9222 C.ar    1  UNL1        0.1121
      6 C         142.1465  142.7263  162.7238 C.3     1  UNL1        0.2515
      7 O         142.8243  142.6212  161.3898 O.3     1  UNL1       -0.4675
      8 C         142.3847  143.4970  160.2541 C.ar    1  UNL1        0.1551
      9 C         143.0625  143.3919  158.9202 C.ar    1  UNL1        0.0384
     10 C         142.6229  144.2677  157.7845 C.ar    1  UNL1        0.0032
     11 C         141.5056  145.2486  157.9829 C.ar    1  UNL1        0.0017
     12 C         140.8278  145.3537  159.3168 C.ar    1  UNL1        0.0206
     13 C         141.2674  144.4779  160.4525 C.ar    1  UNL1        0.0993
     14 C         140.3749  142.7545  166.8215 C.1     1  UNL1       -0.0582
     15 C         140.2771  143.3936  165.4680 C.1     1  UNL1       -0.0392
     16 C         140.4727  142.1153  168.1749 C.ar    1  UNL1        0.0420
     17 C         140.6391  140.6292  168.2922 C.ar    1  UNL1        0.0082
     18 C         140.7369  139.9899  169.6456 C.ar    1  UNL1        0.0006
     19 C         140.6683  140.8368  170.8817 C.ar    1  UNL1        0.0000
     20 C         140.5019  142.3229  170.7645 C.ar    1  UNL1        0.0006
     21 C         140.4041  142.9622  169.4111 C.ar    1  UNL1        0.0082
@<TRIPOS>BOND
     1    14    15    3
     2    15     1    1
     3     1     2   ar
     4     2     3   ar
     5     3     4   ar
     6     4     5   ar
     7     5     6    1
     8     6     7    1
     9     7     8    1
    10     8     9   ar
    11     9    10   ar
    12    10    11   ar
    13    11    12   ar
    14    12    13   ar
    15    14    16    1
    16    16    17   ar
    17    17    18   ar
    18    18    19   ar
    19    19    20   ar
    20    20    21   ar
    21     5     1   ar
    22    13     8   ar
    23    21    16   ar
    24    13     4    1
@<TRIPOS>MOLECULE
*****
 21 24 0 0 0
SMALL
GASTEIGER

@<TRIPOS>ATOM
      1 C         142.0493  142.7278  163.0456 C.ar    1  UNL1        0.1401
      2 N         143.3334  142.2230  162.4573 N.ar    1  UNL1       -0.2154
      3 C         143.4337  142.7383  161.0521 C.ar    1  UNL1        0.1833
      4 N         142.2115  143.5616  160.7721 N.ar    1  UNL1       -0.2847
      5 C         141.3559  143.5551  162.0041 C.ar    1  UNL1        0.1121
      6 C         140.0559  144.3034  162.0184 C.3     1  UNL1        0.2515
      7 O         139.6116  145.0582  160.8007 O.3     1  UNL1       -0.4675
      8 C         140.4672  145.0646  159.5686 C.ar    1  UNL1        0.1551
      9 C         140.0228  145.8194  158.3509 C.ar    1  UNL1        0.0384
     10 C         140.8784  145.8259  157.1189 C.ar    1  UNL1        0.0032
     11 C         142.1784  145.0776  157.1046 C.ar    1  UNL1        0.0017
     12 C         142.6227  144.3228  158.3223 C.ar    1  UNL1        0.0206
     13 C         141.7671  144.3164  159.5543 C.ar    1  UNL1        0.0993
     14 C         141.0441  142.1792  165.8185 C.1     1  UNL1       -0.0582
     15 C         141.5467  142.4535  164.4321 C.1     1  UNL1       -0.0392
     16 C         140.5416  141.9049  167.2050 C.ar    1  UNL1        0.0420
     17 C         140.6638  142.9556  168.2685 C.ar    1  UNL1        0.0082
     18 C         140.1613  142.6812  169.6549 C.ar    1  UNL1        0.0006
     19 C         139.5367  141.3564  169.9778 C.ar    1  UNL1        0.0000
     20 C         139.4145  140.3056  168.9143 C.ar    1  UNL1        0.0006
     21 C         139.9170  140.5799  167.5278 C.ar    1  UNL1        0.0082
@<TRIPOS>BOND
     1    14    15    3
     2    15     1    1
     3     1     2   ar
     4     2     3   ar
     5     3     4   ar
     6     4     5   ar
     7     5     6    1
     8     6     7    1
     9     7     8    1
    10     8     9   ar
    11     9    10   ar
    12    10    11   ar
    13    11    12   ar
    14    12    13   ar
    15    14    16    1
    16    16    17   ar
    17    17    18   ar
    18    18    19   ar
    19    19    20   ar
    20    20    21   ar
    21     5     1   ar
    22    13     8   ar
    23    21    16   ar
    24    13     4    1
@<TRIPOS>MOLECULE
*****
 21 24 0 0 0
SMALL
GASTEIGER

@<TRIPOS>ATOM
      1 C         142.2170  139.4148  163.8063 C.ar    1  UNL1        0.1401
      2 N         143.6079  138.9105  163.5591 N.ar    1  UNL1       -0.2154
      3 C         143.6891  138.4555  162.1320 C.ar    1  UNL1        0.1833
      4 N         142.3484  138.6786  161.4974 N.ar    1  UNL1       -0.2847
      5 C         141.4386  139.2715  162.5321 C.ar    1  UNL1        0.1121
      6 C         140.0189  139.6043  162.1804 C.3     1  UNL1        0.2515
      7 O         139.5090  139.3442  160.7939 O.3     1  UNL1       -0.4675
      8 C         140.4188  138.7513  159.7591 C.ar    1  UNL1        0.1551
      9 C         139.9090  138.4912  158.3727 C.ar    1  UNL1        0.0384
     10 C         140.8188  137.8983  157.3379 C.ar    1  UNL1        0.0032
     11 C         142.2385  137.5656  157.6897 C.ar    1  UNL1        0.0017
     12 C         142.7484  137.8257  159.0761 C.ar    1  UNL1        0.0206
     13 C         141.8385  138.4185  160.1109 C.ar    1  UNL1        0.0993
     14 C         141.1748  140.5166  166.3948 C.1     1  UNL1       -0.0582
     15 C         141.6959  139.9657  165.1006 C.1     1  UNL1       -0.0392
     16 C         140.6538  141.0675  167.6890 C.ar    1  UNL1        0.0420
     17 C         139.8370  140.1989  168.5991 C.ar    1  UNL1        0.0082
     18 C         139.3159  140.7498  169.8934 C.ar    1  UNL1        0.0006
     19 C         139.6117  142.1692  170.2775 C.ar    1  UNL1        0.0000
     20 C         140.4286  143.0379  169.3674 C.ar    1  UNL1        0.0006
     21 C         140.9497  142.4869  168.0732 C.ar    1  UNL1        0.0082
@<TRIPOS>BOND
     1    14    15    3
     2    15     1    1
     3     1     2   ar
     4     2     3   ar
     5     3     4   ar
     6     4     5   ar
     7     5     6    1
     8     6     7    1
     9     7     8    1
    10     8     9   ar
    11     9    10   ar
    12    10    11   ar
    13    11    12   ar
    14    12    13   ar
    15    14    16    1
    16    16    17   ar
    17    17    18   ar
    18    18    19   ar
    19    19    20   ar
    20    20    21   ar
    21     5     1   ar
    22    13     8   ar
    23    21    16   ar
    24    13     4    1
@<TRIPOS>MOLECULE
*****
 21 24 0 0 0
SMALL
GASTEIGER

@<TRIPOS>ATOM
      1 C         139.3845  140.8448  163.9143 C.ar    1  UNL1        0.1401
      2 N         138.5882  139.5879  163.7243 N.ar    1  UNL1       -0.2154
      3 C         138.1409  139.5343  162.2935 C.ar    1  UNL1        0.1833
      4 N         138.6608  140.7581  161.5993 N.ar    1  UNL1       -0.2847
      5 C         139.4293  141.5681  162.6010 C.ar    1  UNL1        0.1121
      6 C         140.0707  142.8595  162.1878 C.3     1  UNL1        0.2515
      7 O         139.9435  143.3411  160.7729 O.3     1  UNL1       -0.4675
      8 C         139.1749  142.5312  159.7712 C.ar    1  UNL1        0.1551
      9 C         139.0477  143.0127  158.3563 C.ar    1  UNL1        0.0384
     10 C         138.2792  142.2028  157.3547 C.ar    1  UNL1        0.0032
     11 C         137.6378  140.9113  157.7679 C.ar    1  UNL1        0.0017
     12 C         137.7650  140.4298  159.1828 C.ar    1  UNL1        0.0206
     13 C         138.5335  141.2397  160.1844 C.ar    1  UNL1        0.0993
     14 C         140.6629  141.7527  166.4720 C.1     1  UNL1       -0.0582
     15 C         140.0237  141.2988  165.1932 C.1     1  UNL1       -0.0392
     16 C         141.3021  142.2067  167.7507 C.ar    1  UNL1        0.0420
     17 C         140.5204  143.0345  168.7273 C.ar    1  UNL1        0.0082
     18 C         141.1596  143.4884  170.0061 C.ar    1  UNL1        0.0006
     19 C         142.5804  143.1147  170.3083 C.ar    1  UNL1        0.0000
     20 C         143.3622  142.2869  169.3317 C.ar    1  UNL1        0.0006
     21 C         142.7230  141.8329  168.0529 C.ar    1  UNL1        0.0082
@<TRIPOS>BOND
     1    14    15    3
     2    15     1    1
     3     1     2   ar
     4     2     3   ar
     5     3     4   ar
     6     4     5   ar
     7     5     6    1
     8     6     7    1
     9     7     8    1
    10     8     9   ar
    11     9    10   ar
    12    10    11   ar
    13    11    12   ar
    14    12    13   ar
    15    14    16    1
    16    16    17   ar
    17    17    18   ar
    18    18    19   ar
    19    19    20   ar
    20    20    21   ar
    21     5     1   ar
    22    13     8   ar
    23    21    16   ar
    24    13     4    1
@<TRIPOS>MOLECULE
*****
 21 24 0 0 0
SMALL
GASTEIGER

@<TRIPOS>ATOM
      1 C         143.5941  143.1785  161.0969 C.ar    1  UNL1        0.1401
      2 N         144.2947  143.5361  162.3741 N.ar    1  UNL1       -0.2154
      3 C         143.2498  143.8443  163.4053 C.ar    1  UNL1        0.1833
      4 N         141.9036  143.6771  162.7653 N.ar    1  UNL1       -0.2847
      5 C         142.1163  143.2656  161.3387 C.ar    1  UNL1        0.1121
      6 C         140.9369  143.0234  160.4441 C.3     1  UNL1        0.2515
      7 O         139.5447  143.1927  160.9761 O.3     1  UNL1       -0.4675
      8 C         139.3319  143.6042  162.4028 C.ar    1  UNL1        0.1551
      9 C         137.9397  143.7735  162.9349 C.ar    1  UNL1        0.0384
     10 C         137.7270  144.1850  164.3615 C.ar    1  UNL1        0.0032
     11 C         138.9064  144.4272  165.2561 C.ar    1  UNL1        0.0017
     12 C         140.2986  144.2579  164.7241 C.ar    1  UNL1        0.0206
     13 C         140.5113  143.8464  163.2974 C.ar    1  UNL1        0.0993
     14 C         144.9164  142.4218  158.5124 C.1     1  UNL1       -0.0582
     15 C         144.2553  142.8001  159.8046 C.1     1  UNL1       -0.0392
     16 C         145.5776  142.0434  157.2203 C.ar    1  UNL1        0.0420
     17 C         144.8793  141.1257  156.2611 C.ar    1  UNL1        0.0082
     18 C         145.5404  140.7473  154.9689 C.ar    1  UNL1        0.0006
     19 C         146.8998  141.2867  154.6360 C.ar    1  UNL1        0.0000
     20 C         147.5982  142.2045  155.5952 C.ar    1  UNL1        0.0006
     21 C         146.9371  142.5828  156.8873 C.ar    1  UNL1        0.0082
@<TRIPOS>BOND
     1    14    15    3
     2    15     1    1
     3     1     2   ar
     4     2     3   ar
     5     3     4   ar
     6     4     5   ar
     7     5     6    1
     8     6     7    1
     9     7     8    1
    10     8     9   ar
    11     9    10   ar
    12    10    11   ar
    13    11    12   ar
    14    12    13   ar
    15    14    16    1
    16    16    17   ar
    17    17    18   ar
    18    18    19   ar
    19    19    20   ar
    20    20    21   ar
    21     5     1   ar
    22    13     8   ar
    23    21    16   ar
    24    13     4    1
@<TRIPOS>MOLECULE
*****
 21 24 0 0 0
SMALL
GASTEIGER

@<TRIPOS>ATOM
      1 C         139.8369  144.6115  161.7058 C.ar    1  UNL1        0.1401
      2 N         138.5554  144.8259  162.4552 N.ar    1  UNL1       -0.2154
      3 C         138.7564  144.3490  163.8631 C.ar    1  UNL1        0.1833
      4 N         140.1621  143.8398  163.9837 N.ar    1  UNL1       -0.2847
      5 C         140.8300  144.0020  162.6504 C.ar    1  UNL1        0.1121
      6 C         142.2560  143.5738  162.4688 C.3     1  UNL1        0.2515
      7 O         143.0143  142.9834  163.6205 O.3     1  UNL1       -0.4675
      8 C         142.3465  142.8212  164.9539 C.ar    1  UNL1        0.1551
      9 C         143.1047  142.2308  166.1056 C.ar    1  UNL1        0.0384
     10 C         142.4369  142.0686  167.4389 C.ar    1  UNL1        0.0032
     11 C         141.0108  142.4968  167.6205 C.ar    1  UNL1        0.0017
     12 C         140.2526  143.0872  166.4688 C.ar    1  UNL1        0.0206
     13 C         140.9204  143.2494  165.1355 C.ar    1  UNL1        0.0993
     14 C         140.3278  145.2835  158.8234 C.1     1  UNL1       -0.0582
     15 C         140.0824  144.9475  160.2645 C.1     1  UNL1       -0.0392
     16 C         140.5732  145.6195  157.3823 C.ar    1  UNL1        0.0420
     17 C         139.7160  146.6398  156.6936 C.ar    1  UNL1        0.0082
     18 C         139.9615  146.9757  155.2525 C.ar    1  UNL1        0.0006
     19 C         141.0640  146.2915  154.5001 C.ar    1  UNL1        0.0000
     20 C         141.9212  145.2712  155.1888 C.ar    1  UNL1        0.0006
     21 C         141.6758  144.9352  156.6299 C.ar    1  UNL1        0.0082
@<TRIPOS>BOND
     1    14    15    3
     2    15     1    1
     3     1     2   ar
     4     2     3   ar
     5     3     4   ar
     6     4     5   ar
     7     5     6    1
     8     6     7    1
     9     7     8    1
    10     8     9   ar
    11     9    10   ar
    12    10    11   ar
    13    11    12   ar
    14    12    13   ar
    15    14    16    1
    16    16    17   ar
    17    17    18   ar
    18    18    19   ar
    19    19    20   ar
    20    20    21   ar
    21     5     1   ar
    22    13     8   ar
    23    21    16   ar
    24    13     4    1
@<TRIPOS>MOLECULE
*****
 21 24 0 0 0
SMALL
GASTEIGER

@<TRIPOS>ATOM
      1 C         140.1551  142.1361  163.2346 C.ar    1  UNL1        0.1401
      2 N         139.4269  140.9630  162.6486 N.ar    1  UNL1       -0.2154
      3 C         139.1735  141.2520  161.1986 C.ar    1  UNL1        0.1833
      4 N         139.7451  142.6036  160.8887 N.ar    1  UNL1       -0.2847
      5 C         140.3518  143.1501  162.1469 C.ar    1  UNL1        0.1121
      6 C         141.0050  144.5004  162.1397 C.3     1  UNL1        0.2515
      7 O         141.0514  145.3043  160.8742 O.3     1  UNL1       -0.4675
      8 C         140.4447  144.7578  159.6158 C.ar    1  UNL1        0.1551
      9 C         140.4912  145.5617  158.3503 C.ar    1  UNL1        0.0384
     10 C         139.8845  145.0153  157.0921 C.ar    1  UNL1        0.0032
     11 C         139.2314  143.6650  157.0993 C.ar    1  UNL1        0.0017
     12 C         139.1849  142.8611  158.3648 C.ar    1  UNL1        0.0206
     13 C         139.7916  143.4075  159.6231 C.ar    1  UNL1        0.0993
     14 C         141.0594  142.4068  166.0823 C.1     1  UNL1       -0.0582
     15 C         140.6073  142.2714  164.6585 C.1     1  UNL1       -0.0392
     16 C         141.5116  142.5422  167.5061 C.ar    1  UNL1        0.0420
     17 C         142.9133  142.1672  167.8867 C.ar    1  UNL1        0.0082
     18 C         143.3654  142.3026  169.3105 C.ar    1  UNL1        0.0006
     19 C         142.4161  142.8128  170.3536 C.ar    1  UNL1        0.0000
     20 C         141.0144  143.1878  169.9731 C.ar    1  UNL1        0.0006
     21 C         140.5622  143.0525  168.5493 C.ar    1  UNL1        0.0082
@<TRIPOS>BOND
     1    14    15    3
     2    15     1    1
     3     1     2   ar
     4     2     3   ar
     5     3     4   ar
     6     4     5   ar
     7     5     6    1
     8     6     7    1
     9     7     8    1
    10     8     9   ar
    11     9    10   ar
    12    10    11   ar
    13    11    12   ar
    14    12    13   ar
    15    14    16    1
    16    16    17   ar
    17    17    18   ar
    18    18    19   ar
    19    19    20   ar
    20    20    21   ar
    21     5     1   ar
    22    13     8   ar
    23    21    16   ar
    24    13     4    1
@<TRIPOS>MOLECULE
*****
 21 24 0 0 0
SMALL
GASTEIGER

@<TRIPOS>ATOM
      1 C         142.5931  138.2587  161.6253 C.ar    1  UNL1        0.1401
      2 N         143.7387  138.8086  162.4221 N.ar    1  UNL1       -0.2154
      3 C         143.2233  139.1763  163.7820 C.ar    1  UNL1        0.1833
      4 N         141.7591  138.8536  163.8254 N.ar    1  UNL1       -0.2847
      5 C         141.3696  138.2865  162.4926 C.ar    1  UNL1        0.1121
      6 C         139.9511  137.8687  162.2408 C.3     1  UNL1        0.2515
      7 O         138.9221  138.0180  163.3219 O.3     1  UNL1       -0.4675
      8 C         139.3116  138.5851  164.6549 C.ar    1  UNL1        0.1551
      9 C         138.2826  138.7344  165.7360 C.ar    1  UNL1        0.0384
     10 C         138.6722  139.3015  167.0689 C.ar    1  UNL1        0.0032
     11 C         140.0906  139.7193  167.3207 C.ar    1  UNL1        0.0017
     12 C         141.1196  139.5700  166.2396 C.ar    1  UNL1        0.0206
     13 C         140.7301  139.0029  164.9067 C.ar    1  UNL1        0.0993
     14 C         142.7255  137.2759  158.7939 C.1     1  UNL1       -0.0582
     15 C         142.6593  137.7673  160.2095 C.1     1  UNL1       -0.0392
     16 C         142.7917  136.7844  157.3782 C.ar    1  UNL1        0.0420
     17 C         143.1096  135.3456  157.0980 C.ar    1  UNL1        0.0082
     18 C         143.1758  134.8541  155.6823 C.ar    1  UNL1        0.0006
     19 C         142.9241  135.8014  154.5470 C.ar    1  UNL1        0.0000
     20 C         142.6062  137.2404  154.8272 C.ar    1  UNL1        0.0006
     21 C         142.5400  137.7318  156.2428 C.ar    1  UNL1        0.0082
@<TRIPOS>BOND
     1    14    15    3
     2    15     1    1
     3     1     2   ar
     4     2     3   ar
     5     3     4   ar
     6     4     5   ar
     7     5     6    1
     8     6     7    1
     9     7     8    1
    10     8     9   ar
    11     9    10   ar
    12    10    11   ar
    13    11    12   ar
    14    12    13   ar
    15    14    16    1
    16    16    17   ar
    17    17    18   ar
    18    18    19   ar
    19    19    20   ar
    20    20    21   ar
    21     5     1   ar
    22    13     8   ar
    23    21    16   ar
    24    13     4    1
@<TRIPOS>MOLECULE
*****
 21 24 0 0 0
SMALL
GASTEIGER

@<TRIPOS>ATOM
      1 C         139.2892  140.1678  163.9196 C.ar    1  UNL1        0.1401
      2 N         137.9398  140.1749  163.2648 N.ar    1  UNL1       -0.2154
      3 C         138.1110  139.7214  161.8453 C.ar    1  UNL1        0.1833
      4 N         139.5663  139.4340  161.6229 N.ar    1  UNL1       -0.2847
      5 C         140.2945  139.7099  162.9049 C.ar    1  UNL1        0.1121
      6 C         141.7789  139.5084  162.9826 C.3     1  UNL1        0.2515
      7 O         142.5350  139.0311  161.7783 O.3     1  UNL1       -0.4675
      8 C         141.8068  138.7552  160.4962 C.ar    1  UNL1        0.1551
      9 C         142.5630  138.2779  159.2919 C.ar    1  UNL1        0.0384
     10 C         141.8348  138.0020  158.0100 C.ar    1  UNL1        0.0032
     11 C         140.3504  138.2034  157.9323 C.ar    1  UNL1        0.0017
     12 C         139.5942  138.6807  159.1365 C.ar    1  UNL1        0.0206
     13 C         140.3224  138.9566  160.4185 C.ar    1  UNL1        0.0993
     14 C         139.8749  140.9347  166.7603 C.1     1  UNL1       -0.0582
     15 C         139.5821  140.5513  165.3400 C.1     1  UNL1       -0.0392
     16 C         140.1678  141.3182  168.1805 C.ar    1  UNL1        0.0420
     17 C         140.5084  142.7394  168.5186 C.ar    1  UNL1        0.0082
     18 C         140.8012  143.1229  169.9389 C.ar    1  UNL1        0.0006
     19 C         140.7535  142.0853  171.0210 C.ar    1  UNL1        0.0000
     20 C         140.4130  140.6641  170.6829 C.ar    1  UNL1        0.0006
     21 C         140.1201  140.2806  169.2627 C.ar    1  UNL1        0.0082
@<TRIPOS>BOND
     1    14    15    3
     2    15     1    1
     3     1     2   ar
     4     2     3   ar
     5     3     4   ar
     6     4     5   ar
     7     5     6    1
     8     6     7    1
     9     7     8    1
    10     8     9   ar
    11     9    10   ar
    12    10    11   ar
    13    11    12   ar
    14    12    13   ar
    15    14    16    1
    16    16    17   ar
    17    17    18   ar
    18    18    19   ar
    19    19    20   ar
    20    20    21   ar
    21     5     1   ar
    22    13     8   ar
    23    21    16   ar
    24    13     4    1
