@<TRIPOS>MOLECULE
*****
 41 45 0 0 0
SMALL
GASTEIGER

@<TRIPOS>ATOM
      1 C         141.5073  141.3752  164.0567 C.3     1  UNL1        0.0806
      2 C         142.3516  141.7371  162.8708 C.ar    1  UNL1        0.0374
      3 C         142.2585  140.9304  161.6097 C.ar    1  UNL1        0.0023
      4 C         143.1028  141.2923  160.4238 C.ar    1  UNL1        0.0181
      5 C         143.0096  140.4857  159.1626 C.ar    1  UNL1        0.0082
      6 C         143.8539  140.8476  157.9768 C.ar    1  UNL1        0.0347
      7 BR        143.7608  140.0409  156.7156 Br      1  UNL1       -0.0490
      8 C         144.7913  142.0162  158.0522 C.ar    1  UNL1        0.0082
      9 C         144.8844  142.8229  159.3133 C.ar    1  UNL1        0.0197
     10 C         144.0401  142.4610  160.4991 C.ar    1  UNL1        0.0844
     11 N         144.1332  143.2676  161.7604 N.ar    1  UNL1       -0.2119
     12 C         143.2889  142.9057  162.9462 C.ar    1  UNL1        0.2211
     13 O         143.3820  143.7124  164.2074 O.3     1  UNL1       -0.4563
     14 C         144.5021  143.4661  165.1742 C.3     1  UNL1        0.2542
     15 C         142.0788  140.5260  165.1531 C.ar    1  UNL1        0.0189
     16 C         142.6089  139.1575  164.8429 C.ar    1  UNL1       -0.0009
     17 C         143.1805  138.3082  165.9393 C.ar    1  UNL1       -0.0001
     18 C         143.2220  138.8275  167.3460 C.ar    1  UNL1        0.0031
     19 C         142.6919  140.1961  167.6562 C.ar    1  UNL1        0.0374
     20 C         142.6002  140.9702  168.9377 C.ar    1  UNL1        0.0437
     21 C         141.9720  142.2978  168.6333 C.ar    1  UNL1        0.1796
     22 O         141.6754  142.3442  167.1637 O.2     1  UNL1       -0.4507
     23 C         142.1203  141.0453  166.5598 C.ar    1  UNL1        0.1418
     24 C         140.0915  141.8625  164.1461 C.3     1  UNL1        0.1162
     25 O         140.5867  143.2620  164.3609 O.3     1  UNL1       -0.3820
     26 H         139.8303  143.8607  164.4617 H       1  UNL1        0.2107
     27 C         138.6210  138.2506  164.8822 C.ar    1  UNL1        0.2272
     28 C         139.1163  139.6501  165.0970 C.ar    1  UNL1        0.0559
     29 C         139.5962  140.4630  163.9313 C.ar    1  UNL1        0.0117
     30 C         139.5809  139.8763  162.5509 C.ar    1  UNL1        0.0559
     31 C         139.0857  138.4768  162.3362 C.ar    1  UNL1        0.2272
     32 N         138.6057  137.6639  163.5018 N.ar    1  UNL1       -0.1767
     33 C         137.3954  138.1004  167.1682 C.3     1  UNL1        0.2542
     34 O         138.1410  137.4377  166.0480 O.3     1  UNL1       -0.4561
     35 O         139.0704  137.8902  160.9557 O.3     1  UNL1       -0.4561
     36 C         139.8370  138.5539  159.8503 C.3     1  UNL1        0.2542
     37 C         138.6756  142.3498  164.2355 C.3     1  UNL1        0.0491
     38 C         138.3028  143.6816  163.6549 C.3     1  UNL1        0.0750
     39 N         138.6853  144.0183  162.2441 N.3     1  UNL1       -0.2702
     40 C         139.3636  145.3215  161.9416 C.3     1  UNL1        0.0897
     41 C         138.3896  143.0518  161.1358 C.3     1  UNL1        0.0897
@<TRIPOS>BOND
     1    33    34    1
     2    34    27    1
     3    27    28   ar
     4    28    29   ar
     5    29    24    1
     6    24    25    1
     7    24    37    1
     8    37    38    1
     9    38    39    1
    10    39    40    1
    11    39    41    1
    12    24     1    1
    13     1     2    1
    14     2     3   ar
    15     3     4   ar
    16     4     5   ar
    17     5     6   ar
    18     6     7    1
    19     6     8   ar
    20     8     9   ar
    21     9    10   ar
    22    10    11   ar
    23    11    12   ar
    24    12    13    1
    25    13    14    1
    26     1    15    1
    27    15    16   ar
    28    16    17   ar
    29    17    18   ar
    30    18    19   ar
    31    19    20   ar
    32    20    21   ar
    33    21    22   ar
    34    22    23   ar
    35    29    30   ar
    36    30    31   ar
    37    31    35    1
    38    35    36    1
    39    31    32   ar
    40    32    27   ar
    41    12     2   ar
    42    23    15   ar
    43    10     4   ar
    44    23    19   ar
    45    25    26    1
@<TRIPOS>MOLECULE
*****
 41 45 0 0 0
SMALL
GASTEIGER

@<TRIPOS>ATOM
      1 C         139.4022  140.8000  164.5991 C.3     1  UNL1        0.0806
      2 C         139.6453  140.7302  166.0777 C.ar    1  UNL1        0.0374
      3 C         140.6581  141.6349  166.7148 C.ar    1  UNL1        0.0023
      4 C         140.9012  141.5651  168.1934 C.ar    1  UNL1        0.0181
      5 C         141.9139  142.4698  168.8305 C.ar    1  UNL1        0.0082
      6 C         142.1569  142.4000  170.3090 C.ar    1  UNL1        0.0347
      7 BR        143.1697  143.3047  170.9461 Br      1  UNL1       -0.0490
      8 C         141.3873  141.4255  171.1504 C.ar    1  UNL1        0.0082
      9 C         140.3745  140.5208  170.5133 C.ar    1  UNL1        0.0197
     10 C         140.1315  140.5906  169.0348 C.ar    1  UNL1        0.0844
     11 N         139.1187  139.6859  168.3976 N.ar    1  UNL1       -0.2119
     12 C         138.8757  139.7557  166.9191 C.ar    1  UNL1        0.2211
     13 O         137.8629  138.8510  166.2820 O.3     1  UNL1       -0.4563
     14 C         137.3417  137.6619  167.0332 C.3     1  UNL1        0.2542
     15 C         139.1960  142.1290  163.9349 C.ar    1  UNL1        0.0189
     16 C         137.8205  142.5489  163.5086 C.ar    1  UNL1       -0.0009
     17 C         137.6142  143.8779  162.8443 C.ar    1  UNL1       -0.0001
     18 C         138.7833  144.7870  162.6064 C.ar    1  UNL1        0.0031
     19 C         140.1589  144.3670  163.0327 C.ar    1  UNL1        0.0374
     20 C         141.4923  145.0464  162.9309 C.ar    1  UNL1        0.0437
     21 C         142.5227  144.1372  163.5323 C.ar    1  UNL1        0.1796
     22 O         141.8261  142.8960  164.0057 O.2     1  UNL1       -0.4507
     23 C         140.3651  143.0381  163.6970 C.ar    1  UNL1        0.1418
     24 C         139.3654  139.5408  163.7849 C.3     1  UNL1        0.1162
     25 O         137.8712  139.6404  163.6984 O.3     1  UNL1       -0.3820
     26 H         137.5267  138.8941  163.1834 H       1  UNL1        0.2107
     27 C         143.2052  139.8380  162.8271 C.ar    1  UNL1        0.2272
     28 C         141.7110  139.9376  162.7406 C.ar    1  UNL1        0.0559
     29 C         140.8596  139.4412  163.8714 C.ar    1  UNL1        0.0117
     30 C         141.5024  138.8453  165.0886 C.ar    1  UNL1        0.0559
     31 C         142.9966  138.7457  165.1750 C.ar    1  UNL1        0.2272
     32 N         143.8480  139.2421  164.0443 N.ar    1  UNL1       -0.1767
     33 C         144.7845  141.6400  161.8225 C.3     1  UNL1        0.2542
     34 O         144.0567  140.3344  161.6962 O.3     1  UNL1       -0.4561
     35 O         143.6393  138.1497  166.3923 O.3     1  UNL1       -0.4561
     36 C         143.2373  138.6196  167.7589 C.3     1  UNL1        0.2542
     37 C         139.3286  138.2816  162.9706 C.3     1  UNL1        0.0491
     38 C         138.3673  138.1564  161.8261 C.3     1  UNL1        0.0750
     39 N         138.5763  138.9639  160.5793 N.3     1  UNL1       -0.2702
     40 C         139.7298  138.6564  159.6712 C.3     1  UNL1        0.0897
     41 C         137.6318  140.0789  160.2408 C.3     1  UNL1        0.0897
@<TRIPOS>BOND
     1    33    34    1
     2    34    27    1
     3    27    28   ar
     4    28    29   ar
     5    29    24    1
     6    24    25    1
     7    24    37    1
     8    37    38    1
     9    38    39    1
    10    39    40    1
    11    39    41    1
    12    24     1    1
    13     1     2    1
    14     2     3   ar
    15     3     4   ar
    16     4     5   ar
    17     5     6   ar
    18     6     7    1
    19     6     8   ar
    20     8     9   ar
    21     9    10   ar
    22    10    11   ar
    23    11    12   ar
    24    12    13    1
    25    13    14    1
    26     1    15    1
    27    15    16   ar
    28    16    17   ar
    29    17    18   ar
    30    18    19   ar
    31    19    20   ar
    32    20    21   ar
    33    21    22   ar
    34    22    23   ar
    35    29    30   ar
    36    30    31   ar
    37    31    35    1
    38    35    36    1
    39    31    32   ar
    40    32    27   ar
    41    12     2   ar
    42    23    15   ar
    43    10     4   ar
    44    23    19   ar
    45    25    26    1
@<TRIPOS>MOLECULE
*****
 41 45 0 0 0
SMALL
GASTEIGER

@<TRIPOS>ATOM
      1 C         141.1468  142.2484  164.5660 C.3     1  UNL1        0.0806
      2 C         142.0331  142.3475  163.3598 C.ar    1  UNL1        0.0374
      3 C         141.7634  141.4908  162.1585 C.ar    1  UNL1        0.0023
      4 C         142.6497  141.5899  160.9524 C.ar    1  UNL1        0.0181
      5 C         142.3801  140.7332  159.7510 C.ar    1  UNL1        0.0082
      6 C         143.2663  140.8323  158.5450 C.ar    1  UNL1        0.0347
      7 BR        142.9967  139.9756  157.3436 Br      1  UNL1       -0.0490
      8 C         144.4223  141.7882  158.5403 C.ar    1  UNL1        0.0082
      9 C         144.6920  142.6449  159.7416 C.ar    1  UNL1        0.0197
     10 C         143.8057  142.5458  160.9476 C.ar    1  UNL1        0.0844
     11 N         144.0754  143.4025  162.1491 N.ar    1  UNL1       -0.2119
     12 C         143.1891  143.3034  163.3551 C.ar    1  UNL1        0.2211
     13 O         143.4588  144.1601  164.5565 O.3     1  UNL1       -0.4563
     14 C         144.6407  143.8711  165.4338 C.3     1  UNL1        0.2542
     15 C         141.6958  141.7222  165.8589 C.ar    1  UNL1        0.0189
     16 C         141.6428  142.5687  167.0960 C.ar    1  UNL1       -0.0009
     17 C         142.1918  142.0426  168.3890 C.ar    1  UNL1       -0.0001
     18 C         142.7938  140.6698  168.4448 C.ar    1  UNL1        0.0031
     19 C         142.8468  139.8232  167.2076 C.ar    1  UNL1        0.0374
     20 C         143.3762  138.4421  166.9586 C.ar    1  UNL1        0.0437
     21 C         143.1543  138.1146  165.5117 C.ar    1  UNL1        0.1796
     22 O         142.4879  139.2934  164.8665 O.2     1  UNL1       -0.4507
     23 C         142.2978  140.3494  165.9147 C.ar    1  UNL1        0.1418
     24 C         139.7115  142.6754  164.4791 C.3     1  UNL1        0.1162
     25 O         140.1454  144.1039  164.3333 O.3     1  UNL1       -0.3820
     26 H         139.3638  144.6722  164.2489 H       1  UNL1        0.2107
     27 C         138.8517  138.9070  163.5797 C.ar    1  UNL1        0.2272
     28 C         139.2855  140.3354  163.4338 C.ar    1  UNL1        0.0559
     29 C         139.2777  141.2470  164.6250 C.ar    1  UNL1        0.0117
     30 C         138.8359  140.7301  165.9620 C.ar    1  UNL1        0.0559
     31 C         138.4020  139.3017  166.1078 C.ar    1  UNL1        0.2272
     32 N         138.4099  138.3901  164.9167 N.ar    1  UNL1       -0.1767
     33 C         139.9656  138.0893  161.3795 C.3     1  UNL1        0.2542
     34 O         138.8596  137.9954  162.3884 O.3     1  UNL1       -0.4561
     35 O         137.9602  138.7848  167.4449 O.3     1  UNL1       -0.4561
     36 C         136.9653  137.6651  167.5248 C.3     1  UNL1        0.2542
     37 C         138.2762  143.1025  164.3923 C.3     1  UNL1        0.0491
     38 C         137.7673  143.7740  163.1513 C.3     1  UNL1        0.0750
     39 N         138.5146  143.6273  161.8589 N.3     1  UNL1       -0.2702
     40 C         139.5738  144.6225  161.4879 C.3     1  UNL1        0.0897
     41 C         138.2027  142.4855  160.9376 C.3     1  UNL1        0.0897
@<TRIPOS>BOND
     1    33    34    1
     2    34    27    1
     3    27    28   ar
     4    28    29   ar
     5    29    24    1
     6    24    25    1
     7    24    37    1
     8    37    38    1
     9    38    39    1
    10    39    40    1
    11    39    41    1
    12    24     1    1
    13     1     2    1
    14     2     3   ar
    15     3     4   ar
    16     4     5   ar
    17     5     6   ar
    18     6     7    1
    19     6     8   ar
    20     8     9   ar
    21     9    10   ar
    22    10    11   ar
    23    11    12   ar
    24    12    13    1
    25    13    14    1
    26     1    15    1
    27    15    16   ar
    28    16    17   ar
    29    17    18   ar
    30    18    19   ar
    31    19    20   ar
    32    20    21   ar
    33    21    22   ar
    34    22    23   ar
    35    29    30   ar
    36    30    31   ar
    37    31    35    1
    38    35    36    1
    39    31    32   ar
    40    32    27   ar
    41    12     2   ar
    42    23    15   ar
    43    10     4   ar
    44    23    19   ar
    45    25    26    1
@<TRIPOS>MOLECULE
*****
 41 45 0 0 0
SMALL
GASTEIGER

@<TRIPOS>ATOM
      1 C         141.2684  140.9567  162.7386 C.3     1  UNL1        0.0806
      2 C         141.3214  140.6729  164.2106 C.ar    1  UNL1        0.0374
      3 C         140.9499  141.7425  165.1944 C.ar    1  UNL1        0.0023
      4 C         141.0029  141.4587  166.6664 C.ar    1  UNL1        0.0181
      5 C         140.6315  142.5283  167.6502 C.ar    1  UNL1        0.0082
      6 C         140.6845  142.2445  169.1222 C.ar    1  UNL1        0.0347
      7 BR        140.3130  143.3141  170.1061 Br      1  UNL1       -0.0490
      8 C         141.1089  140.8912  169.6103 C.ar    1  UNL1        0.0082
      9 C         141.4803  139.8216  168.6264 C.ar    1  UNL1        0.0197
     10 C         141.4273  140.1054  167.1545 C.ar    1  UNL1        0.0844
     11 N         141.7988  139.0358  166.1706 N.ar    1  UNL1       -0.2119
     12 C         141.7458  139.3195  164.6987 C.ar    1  UNL1        0.2211
     13 O         142.1173  138.2499  163.7147 O.3     1  UNL1       -0.4563
     14 C         141.1291  137.1771  163.3646 C.3     1  UNL1        0.2542
     15 C         140.1114  140.4639  161.9209 C.ar    1  UNL1        0.0189
     16 C         138.7062  140.7458  162.3636 C.ar    1  UNL1       -0.0009
     17 C         137.5492  140.2530  161.5460 C.ar    1  UNL1       -0.0001
     18 C         137.7973  139.4784  160.2857 C.ar    1  UNL1        0.0031
     19 C         139.2026  139.1966  159.8430 C.ar    1  UNL1        0.0374
     20 C         139.7529  138.4643  158.6552 C.ar    1  UNL1        0.0437
     21 C         141.2500  138.5044  158.7387 C.ar    1  UNL1        0.1796
     22 O         141.6250  139.2615  159.9781 O.2     1  UNL1       -0.4507
     23 C         140.3596  139.6893  160.6606 C.ar    1  UNL1        0.1418
     24 C         142.3724  141.7332  162.0842 C.3     1  UNL1        0.1162
     25 O         143.3170  140.5932  162.3252 O.3     1  UNL1       -0.3820
     26 H         144.1938  140.8209  161.9782 H       1  UNL1        0.2107
     27 C         139.8942  144.7575  162.7638 C.ar    1  UNL1        0.2272
     28 C         140.8388  143.6175  163.0047 C.ar    1  UNL1        0.0559
     29 C         141.4278  142.8732  161.8433 C.ar    1  UNL1        0.0117
     30 C         141.0721  143.2689  160.4408 C.ar    1  UNL1        0.0559
     31 C         140.1275  144.4089  160.1999 C.ar    1  UNL1        0.2272
     32 N         139.5385  145.1532  161.3613 N.ar    1  UNL1       -0.1767
     33 C         138.8167  144.7501  165.1279 C.3     1  UNL1        0.2542
     34 O         139.3053  145.5019  163.9253 O.3     1  UNL1       -0.4561
     35 O         139.7718  144.8045  158.7973 O.3     1  UNL1       -0.4561
     36 C         140.7085  145.6628  157.9998 C.3     1  UNL1        0.2542
     37 C         143.4765  142.5097  161.4299 C.3     1  UNL1        0.0491
     38 C         144.4314  143.3070  162.2680 C.3     1  UNL1        0.0750
     39 N         144.8490  142.8002  163.6167 N.3     1  UNL1       -0.2702
     40 C         145.8714  141.7079  163.7239 C.3     1  UNL1        0.0897
     41 C         144.2441  143.3857  164.8581 C.3     1  UNL1        0.0897
@<TRIPOS>BOND
     1    33    34    1
     2    34    27    1
     3    27    28   ar
     4    28    29   ar
     5    29    24    1
     6    24    25    1
     7    24    37    1
     8    37    38    1
     9    38    39    1
    10    39    40    1
    11    39    41    1
    12    24     1    1
    13     1     2    1
    14     2     3   ar
    15     3     4   ar
    16     4     5   ar
    17     5     6   ar
    18     6     7    1
    19     6     8   ar
    20     8     9   ar
    21     9    10   ar
    22    10    11   ar
    23    11    12   ar
    24    12    13    1
    25    13    14    1
    26     1    15    1
    27    15    16   ar
    28    16    17   ar
    29    17    18   ar
    30    18    19   ar
    31    19    20   ar
    32    20    21   ar
    33    21    22   ar
    34    22    23   ar
    35    29    30   ar
    36    30    31   ar
    37    31    35    1
    38    35    36    1
    39    31    32   ar
    40    32    27   ar
    41    12     2   ar
    42    23    15   ar
    43    10     4   ar
    44    23    19   ar
    45    25    26    1
@<TRIPOS>MOLECULE
*****
 41 45 0 0 0
SMALL
GASTEIGER

@<TRIPOS>ATOM
      1 C         142.1484  141.0510  163.3482 C.3     1  UNL1        0.0806
      2 C         142.4241  141.4014  164.7804 C.ar    1  UNL1        0.0374
      3 C         141.6482  140.7359  165.8781 C.ar    1  UNL1        0.0023
      4 C         141.9239  141.0863  167.3104 C.ar    1  UNL1        0.0181
      5 C         141.1480  140.4208  168.4081 C.ar    1  UNL1        0.0082
      6 C         141.4237  140.7712  169.8402 C.ar    1  UNL1        0.0347
      7 BR        140.6478  140.1057  170.9380 Br      1  UNL1       -0.0490
      8 C         142.4754  141.7872  170.1747 C.ar    1  UNL1        0.0082
      9 C         143.2513  142.4527  169.0770 C.ar    1  UNL1        0.0197
     10 C         142.9756  142.1023  167.6448 C.ar    1  UNL1        0.0844
     11 N         143.7515  142.7678  166.5470 N.ar    1  UNL1       -0.2119
     12 C         143.4758  142.4174  165.1149 C.ar    1  UNL1        0.2211
     13 O         144.2517  143.0829  164.0171 O.3     1  UNL1       -0.4563
     14 C         143.9412  144.4988  163.6312 C.3     1  UNL1        0.2542
     15 C         141.3683  141.9949  162.4819 C.ar    1  UNL1        0.0189
     16 C         141.9963  142.5744  161.2492 C.ar    1  UNL1       -0.0009
     17 C         141.2162  143.5184  160.3829 C.ar    1  UNL1       -0.0001
     18 C         139.8080  143.8827  160.7493 C.ar    1  UNL1        0.0031
     19 C         139.1800  143.3032  161.9822 C.ar    1  UNL1        0.0374
     20 C         137.8209  143.4768  162.5925 C.ar    1  UNL1        0.0437
     21 C         137.7610  142.6401  163.8361 C.ar    1  UNL1        0.1796
     22 O         139.0831  141.9495  163.9942 O.2     1  UNL1       -0.4507
     23 C         139.9601  142.3593  162.8484 C.ar    1  UNL1        0.1418
     24 C         142.6528  139.7567  162.7823 C.3     1  UNL1        0.1162
     25 O         144.0583  140.2766  162.8459 O.3     1  UNL1       -0.3820
     26 H         144.6688  139.5995  162.5146 H       1  UNL1        0.2107
     27 C         139.0653  138.8084  161.3748 C.ar    1  UNL1        0.2272
     28 C         140.4709  139.3284  161.4385 C.ar    1  UNL1        0.0559
     29 C         141.2472  139.2367  162.7186 C.ar    1  UNL1        0.0117
     30 C         140.6180  138.6251  163.9352 C.ar    1  UNL1        0.0559
     31 C         139.2124  138.1052  163.8715 C.ar    1  UNL1        0.2272
     32 N         138.4361  138.1969  162.5914 N.ar    1  UNL1       -0.1767
     33 C         137.9696  140.2422  159.5056 C.3     1  UNL1        0.2542
     34 O         138.2890  138.9001  160.0946 O.3     1  UNL1       -0.4561
     35 O         138.5832  137.4936  165.0881 O.3     1  UNL1       -0.4561
     36 C         138.1726  138.3645  166.2383 C.3     1  UNL1        0.2542
     37 C         143.1572  138.4623  162.2164 C.3     1  UNL1        0.0491
     38 C         144.0871  138.4701  161.0395 C.3     1  UNL1        0.0750
     39 N         143.5648  138.8019  159.6731 N.3     1  UNL1       -0.2702
     40 C         143.8500  140.1438  159.0666 C.3     1  UNL1        0.0897
     41 C         142.7573  137.7918  158.9131 C.3     1  UNL1        0.0897
@<TRIPOS>BOND
     1    33    34    1
     2    34    27    1
     3    27    28   ar
     4    28    29   ar
     5    29    24    1
     6    24    25    1
     7    24    37    1
     8    37    38    1
     9    38    39    1
    10    39    40    1
    11    39    41    1
    12    24     1    1
    13     1     2    1
    14     2     3   ar
    15     3     4   ar
    16     4     5   ar
    17     5     6   ar
    18     6     7    1
    19     6     8   ar
    20     8     9   ar
    21     9    10   ar
    22    10    11   ar
    23    11    12   ar
    24    12    13    1
    25    13    14    1
    26     1    15    1
    27    15    16   ar
    28    16    17   ar
    29    17    18   ar
    30    18    19   ar
    31    19    20   ar
    32    20    21   ar
    33    21    22   ar
    34    22    23   ar
    35    29    30   ar
    36    30    31   ar
    37    31    35    1
    38    35    36    1
    39    31    32   ar
    40    32    27   ar
    41    12     2   ar
    42    23    15   ar
    43    10     4   ar
    44    23    19   ar
    45    25    26    1
@<TRIPOS>MOLECULE
*****
 41 45 0 0 0
SMALL
GASTEIGER

@<TRIPOS>ATOM
      1 C         140.7038  140.6270  163.1049 C.3     1  UNL1        0.0806
      2 C         140.3913  140.5341  164.5690 C.ar    1  UNL1        0.0374
      3 C         140.6284  141.7149  165.4630 C.ar    1  UNL1        0.0023
      4 C         140.3158  141.6219  166.9272 C.ar    1  UNL1        0.0181
      5 C         140.5530  142.8028  167.8212 C.ar    1  UNL1        0.0082
      6 C         140.2404  142.7097  169.2853 C.ar    1  UNL1        0.0347
      7 BR        140.4776  143.8906  170.1794 Br      1  UNL1       -0.0490
      8 C         139.6907  141.4358  169.8554 C.ar    1  UNL1        0.0082
      9 C         139.4535  140.2550  168.9614 C.ar    1  UNL1        0.0197
     10 C         139.7661  140.3480  167.4973 C.ar    1  UNL1        0.0844
     11 N         139.5289  139.1671  166.6032 N.ar    1  UNL1       -0.2119
     12 C         139.8415  139.2602  165.1391 C.ar    1  UNL1        0.2211
     13 O         139.6043  138.0793  164.2450 O.3     1  UNL1       -0.4563
     14 C         140.6411  137.0007  164.1363 C.3     1  UNL1        0.2542
     15 C         141.8377  139.8323  162.5281 C.ar    1  UNL1        0.0189
     16 C         143.1061  139.6592  163.3097 C.ar    1  UNL1       -0.0009
     17 C         144.2400  138.8644  162.7330 C.ar    1  UNL1       -0.0001
     18 C         144.1054  138.2427  161.3745 C.ar    1  UNL1        0.0031
     19 C         142.8369  138.4159  160.5928 C.ar    1  UNL1        0.0374
     20 C         142.4169  137.9240  159.2395 C.ar    1  UNL1        0.0437
     21 C         141.0234  138.4148  158.9798 C.ar    1  UNL1        0.1796
     22 O         140.5823  139.2099  160.1727 O.2     1  UNL1       -0.4507
     23 C         141.7031  139.2106  161.1696 C.ar    1  UNL1        0.1418
     24 C         139.8825  141.5148  162.2176 C.3     1  UNL1        0.1162
     25 O         138.6923  140.6273  162.4313 O.3     1  UNL1       -0.3820
     26 H         137.9350  140.9773  161.9364 H       1  UNL1        0.2107
     27 C         142.9226  143.9550  162.9615 C.ar    1  UNL1        0.2272
     28 C         141.7323  143.0675  163.1753 C.ar    1  UNL1        0.0559
     29 C         141.0728  142.4023  162.0038 C.ar    1  UNL1        0.0117
     30 C         141.6034  142.6245  160.6186 C.ar    1  UNL1        0.0559
     31 C         142.7937  143.5120  160.4048 C.ar    1  UNL1        0.2272
     32 N         143.4532  144.1773  161.5763 N.ar    1  UNL1       -0.1767
     33 C         144.4231  143.8139  165.0778 C.3     1  UNL1        0.2542
     34 O         143.5821  144.6203  164.1331 O.3     1  UNL1       -0.4561
     35 O         143.3244  143.7343  159.0195 O.3     1  UNL1       -0.4561
     36 C         142.4402  144.3297  157.9642 C.3     1  UNL1        0.2542
     37 C         139.0612  142.4026  161.3303 C.3     1  UNL1        0.0491
     38 C         137.9858  143.2653  161.9210 C.3     1  UNL1        0.0750
     39 N         138.3351  144.3021  162.9472 N.3     1  UNL1       -0.2702
     40 C         139.1136  145.5204  162.5476 C.3     1  UNL1        0.0897
     41 C         137.9060  144.1206  164.3730 C.3     1  UNL1        0.0897
@<TRIPOS>BOND
     1    33    34    1
     2    34    27    1
     3    27    28   ar
     4    28    29   ar
     5    29    24    1
     6    24    25    1
     7    24    37    1
     8    37    38    1
     9    38    39    1
    10    39    40    1
    11    39    41    1
    12    24     1    1
    13     1     2    1
    14     2     3   ar
    15     3     4   ar
    16     4     5   ar
    17     5     6   ar
    18     6     7    1
    19     6     8   ar
    20     8     9   ar
    21     9    10   ar
    22    10    11   ar
    23    11    12   ar
    24    12    13    1
    25    13    14    1
    26     1    15    1
    27    15    16   ar
    28    16    17   ar
    29    17    18   ar
    30    18    19   ar
    31    19    20   ar
    32    20    21   ar
    33    21    22   ar
    34    22    23   ar
    35    29    30   ar
    36    30    31   ar
    37    31    35    1
    38    35    36    1
    39    31    32   ar
    40    32    27   ar
    41    12     2   ar
    42    23    15   ar
    43    10     4   ar
    44    23    19   ar
    45    25    26    1
@<TRIPOS>MOLECULE
*****
 41 45 0 0 0
SMALL
GASTEIGER

@<TRIPOS>ATOM
      1 C         141.6213  141.5694  163.6444 C.3     1  UNL1        0.0806
      2 C         142.0787  141.7985  165.0545 C.ar    1  UNL1        0.0374
      3 C         141.3388  141.1653  166.1953 C.ar    1  UNL1        0.0023
      4 C         141.7963  141.3945  167.6054 C.ar    1  UNL1        0.0181
      5 C         141.0563  140.7612  168.7462 C.ar    1  UNL1        0.0082
      6 C         141.5138  140.9904  170.1562 C.ar    1  UNL1        0.0347
      7 BR        140.7738  140.3572  171.2971 Br      1  UNL1       -0.0490
      8 C         142.7112  141.8528  170.4254 C.ar    1  UNL1        0.0082
      9 C         143.4511  142.4861  169.2847 C.ar    1  UNL1        0.0197
     10 C         142.9937  142.2569  167.8747 C.ar    1  UNL1        0.0844
     11 N         143.7336  142.8901  166.7338 N.ar    1  UNL1       -0.2119
     12 C         143.2762  142.6609  165.3238 C.ar    1  UNL1        0.2211
     13 O         144.0161  143.2942  164.1829 O.3     1  UNL1       -0.4563
     14 C         143.8608  144.7610  163.9102 C.3     1  UNL1        0.2542
     15 C         142.4835  140.7941  162.6929 C.ar    1  UNL1        0.0189
     16 C         142.9139  139.3991  163.0372 C.ar    1  UNL1       -0.0009
     17 C         143.7762  138.6238  162.0857 C.ar    1  UNL1       -0.0001
     18 C         144.2080  139.2435  160.7898 C.ar    1  UNL1        0.0031
     19 C         143.7776  140.6387  160.4454 C.ar    1  UNL1        0.0374
     20 C         144.0449  141.5054  159.2507 C.ar    1  UNL1        0.0437
     21 C         143.3478  142.8163  159.4639 C.ar    1  UNL1        0.1796
     22 O         142.6497  142.7598  160.7904 O.2     1  UNL1       -0.4507
     23 C         142.9154  141.4139  161.3970 C.ar    1  UNL1        0.1418
     24 C         140.3016  142.1155  163.1860 C.3     1  UNL1        0.1162
     25 O         140.8447  143.5103  163.2842 O.3     1  UNL1       -0.3820
     26 H         140.1571  144.1439  163.0259 H       1  UNL1        0.2107
     27 C         139.1071  138.6557  161.6520 C.ar    1  UNL1        0.2272
     28 C         139.6502  140.0505  161.7502 C.ar    1  UNL1        0.0559
     29 C         139.7585  140.7207  163.0878 C.ar    1  UNL1        0.0117
     30 C         139.3238  139.9961  164.3271 C.ar    1  UNL1        0.0559
     31 C         138.7808  138.6013  164.2288 C.ar    1  UNL1        0.2272
     32 N         138.6724  137.9311  162.8913 N.ar    1  UNL1       -0.1767
     33 C         139.6991  138.5702  159.1237 C.3     1  UNL1        0.2542
     34 O         138.9988  137.9856  160.3143 O.3     1  UNL1       -0.4561
     35 O         138.3460  137.8767  165.4682 O.3     1  UNL1       -0.4561
     36 C         137.9065  138.6518  166.6749 C.3     1  UNL1        0.2542
     37 C         138.9819  142.6616  162.7275 C.3     1  UNL1        0.0491
     38 C         138.9192  143.9938  162.0411 C.3     1  UNL1        0.0750
     39 N         139.5025  144.1588  160.6690 N.3     1  UNL1       -0.2702
     40 C         140.2861  145.3922  160.3305 C.3     1  UNL1        0.0897
     41 C         139.3022  143.0903  159.6355 C.3     1  UNL1        0.0897
@<TRIPOS>BOND
     1    33    34    1
     2    34    27    1
     3    27    28   ar
     4    28    29   ar
     5    29    24    1
     6    24    25    1
     7    24    37    1
     8    37    38    1
     9    38    39    1
    10    39    40    1
    11    39    41    1
    12    24     1    1
    13     1     2    1
    14     2     3   ar
    15     3     4   ar
    16     4     5   ar
    17     5     6   ar
    18     6     7    1
    19     6     8   ar
    20     8     9   ar
    21     9    10   ar
    22    10    11   ar
    23    11    12   ar
    24    12    13    1
    25    13    14    1
    26     1    15    1
    27    15    16   ar
    28    16    17   ar
    29    17    18   ar
    30    18    19   ar
    31    19    20   ar
    32    20    21   ar
    33    21    22   ar
    34    22    23   ar
    35    29    30   ar
    36    30    31   ar
    37    31    35    1
    38    35    36    1
    39    31    32   ar
    40    32    27   ar
    41    12     2   ar
    42    23    15   ar
    43    10     4   ar
    44    23    19   ar
    45    25    26    1
@<TRIPOS>MOLECULE
*****
 41 45 0 0 0
SMALL
GASTEIGER

@<TRIPOS>ATOM
      1 C         141.6240  141.5607  163.6502 C.3     1  UNL1        0.0806
      2 C         142.0777  141.7885  165.0617 C.ar    1  UNL1        0.0374
      3 C         141.3390  141.1483  166.1995 C.ar    1  UNL1        0.0023
      4 C         141.7927  141.3762  167.6110 C.ar    1  UNL1        0.0181
      5 C         141.0541  140.7360  168.7487 C.ar    1  UNL1        0.0082
      6 C         141.5078  140.9638  170.1602 C.ar    1  UNL1        0.0347
      7 BR        140.7692  140.3236  171.2980 Br      1  UNL1       -0.0490
      8 C         142.7001  141.8319  170.4339 C.ar    1  UNL1        0.0082
      9 C         143.4387  142.4721  169.2961 C.ar    1  UNL1        0.0197
     10 C         142.9850  142.2442  167.8847 C.ar    1  UNL1        0.0844
     11 N         143.7236  142.8844  166.7468 N.ar    1  UNL1       -0.2119
     12 C         143.2700  142.6566  165.3354 C.ar    1  UNL1        0.2211
     13 O         144.0086  143.2968  164.1975 O.3     1  UNL1       -0.4563
     14 C         143.8727  144.7699  163.9495 C.3     1  UNL1        0.2542
     15 C         142.4887  140.7862  162.7002 C.ar    1  UNL1        0.0189
     16 C         142.9195  139.3915  163.0453 C.ar    1  UNL1       -0.0009
     17 C         143.7843  138.6170  162.0953 C.ar    1  UNL1       -0.0001
     18 C         144.2181  139.2372  160.8003 C.ar    1  UNL1        0.0031
     19 C         143.7872  140.6320  160.4553 C.ar    1  UNL1        0.0374
     20 C         144.0561  141.4990  159.2611 C.ar    1  UNL1        0.0437
     21 C         143.3575  142.8094  159.4731 C.ar    1  UNL1        0.1796
     22 O         142.6570  142.7522  160.7982 O.2     1  UNL1       -0.4507
     23 C         142.9225  141.4065  161.4052 C.ar    1  UNL1        0.1418
     24 C         140.3056  142.1074  163.1887 C.3     1  UNL1        0.1162
     25 O         140.8500  143.5018  163.2850 O.3     1  UNL1       -0.3820
     26 H         140.1636  144.1356  163.0244 H       1  UNL1        0.2107
     27 C         138.7695  138.6008  164.2348 C.ar    1  UNL1        0.2272
     28 C         139.3139  139.9952  164.3312 C.ar    1  UNL1        0.0559
     29 C         139.7611  140.7130  163.0923 C.ar    1  UNL1        0.0117
     30 C         139.6639  140.0364  161.7572 C.ar    1  UNL1        0.0559
     31 C         139.1194  138.6420  161.6608 C.ar    1  UNL1        0.2272
     32 N         138.6722  137.9242  162.8996 N.ar    1  UNL1       -0.1767
     33 C         137.9242  138.6643  166.6907 C.3     1  UNL1        0.2542
     34 O         138.3223  137.8830  165.4737 O.3     1  UNL1       -0.4561
     35 O         139.0222  137.9654  160.3256 O.3     1  UNL1       -0.4561
     36 C         139.6731  138.5822  159.1231 C.3     1  UNL1        0.2542
     37 C         138.9872  142.6540  162.7272 C.3     1  UNL1        0.0491
     38 C         138.9247  143.9929  162.0538 C.3     1  UNL1        0.0750
     39 N         139.5099  144.1717  160.6842 N.3     1  UNL1       -0.2702
     40 C         139.3204  143.1086  159.6431 C.3     1  UNL1        0.0897
     41 C         140.2844  145.4135  160.3558 C.3     1  UNL1        0.0897
@<TRIPOS>BOND
     1    33    34    1
     2    34    27    1
     3    27    28   ar
     4    28    29   ar
     5    29    24    1
     6    24    25    1
     7    24    37    1
     8    37    38    1
     9    38    39    1
    10    39    40    1
    11    39    41    1
    12    24     1    1
    13     1     2    1
    14     2     3   ar
    15     3     4   ar
    16     4     5   ar
    17     5     6   ar
    18     6     7    1
    19     6     8   ar
    20     8     9   ar
    21     9    10   ar
    22    10    11   ar
    23    11    12   ar
    24    12    13    1
    25    13    14    1
    26     1    15    1
    27    15    16   ar
    28    16    17   ar
    29    17    18   ar
    30    18    19   ar
    31    19    20   ar
    32    20    21   ar
    33    21    22   ar
    34    22    23   ar
    35    29    30   ar
    36    30    31   ar
    37    31    35    1
    38    35    36    1
    39    31    32   ar
    40    32    27   ar
    41    12     2   ar
    42    23    15   ar
    43    10     4   ar
    44    23    19   ar
    45    25    26    1
@<TRIPOS>MOLECULE
*****
 41 45 0 0 0
SMALL
GASTEIGER

@<TRIPOS>ATOM
      1 C         142.1392  141.2175  163.4965 C.3     1  UNL1        0.0806
      2 C         142.4050  141.5293  164.9395 C.ar    1  UNL1        0.0374
      3 C         141.6142  140.8425  166.0132 C.ar    1  UNL1        0.0023
      4 C         141.8801  141.1543  167.4562 C.ar    1  UNL1        0.0181
      5 C         141.0893  140.4675  168.5299 C.ar    1  UNL1        0.0082
      6 C         141.3552  140.7793  169.9729 C.ar    1  UNL1        0.0347
      7 BR        140.5643  140.0925  171.0467 Br      1  UNL1       -0.0490
      8 C         142.4119  141.7778  170.3420 C.ar    1  UNL1        0.0082
      9 C         143.2027  142.4646  169.2683 C.ar    1  UNL1        0.0197
     10 C         142.9368  142.1528  167.8254 C.ar    1  UNL1        0.0844
     11 N         143.7276  142.8396  166.7516 N.ar    1  UNL1       -0.2119
     12 C         143.4617  142.5278  165.3087 C.ar    1  UNL1        0.2211
     13 O         144.2526  143.2146  164.2349 O.3     1  UNL1       -0.4563
     14 C         143.9318  144.6301  163.8563 C.3     1  UNL1        0.2542
     15 C         141.3651  142.1845  162.6505 C.ar    1  UNL1        0.0189
     16 C         141.9920  142.7753  161.4225 C.ar    1  UNL1       -0.0009
     17 C         141.2180  143.7424  160.5765 C.ar    1  UNL1       -0.0001
     18 C         139.8171  144.1187  160.9585 C.ar    1  UNL1        0.0031
     19 C         139.1902  143.5278  162.1866 C.ar    1  UNL1        0.0374
     20 C         137.8377  143.7089  162.8091 C.ar    1  UNL1        0.0437
     21 C         137.7757  142.8537  164.0400 C.ar    1  UNL1        0.1796
     22 O         139.0900  142.1442  164.1780 O.2     1  UNL1       -0.4507
     23 C         139.9643  142.5608  163.0325 C.ar    1  UNL1        0.1418
     24 C         142.6473  139.9387  162.8995 C.3     1  UNL1        0.1162
     25 O         144.0504  140.4647  162.9670 O.3     1  UNL1       -0.3820
     26 H         144.6627  139.7985  162.6176 H       1  UNL1        0.2107
     27 C         139.2105  138.2740  163.9799 C.ar    1  UNL1        0.2272
     28 C         140.6136  138.8001  164.0474 C.ar    1  UNL1        0.0559
     29 C         141.2442  139.4126  162.8320 C.ar    1  UNL1        0.0117
     30 C         140.4717  139.4991  161.5492 C.ar    1  UNL1        0.0559
     31 C         139.0686  138.9730  161.4817 C.ar    1  UNL1        0.2272
     32 N         138.4380  138.3605  162.6970 N.ar    1  UNL1       -0.1767
     33 C         138.1410  138.5346  166.3332 C.3     1  UNL1        0.2542
     34 O         138.5799  137.6615  165.1953 O.3     1  UNL1       -0.4561
     35 O         138.2961  139.0595  160.1988 O.3     1  UNL1       -0.4561
     36 C         138.0559  140.3936  159.5565 C.3     1  UNL1        0.2542
     37 C         143.1555  138.6599  162.3026 C.3     1  UNL1        0.0491
     38 C         144.1019  138.6991  161.1395 C.3     1  UNL1        0.0750
     39 N         143.5747  138.9041  159.7502 N.3     1  UNL1       -0.2702
     40 C         143.8357  140.1947  159.0318 C.3     1  UNL1        0.0897
     41 C         142.7866  137.8184  159.0793 C.3     1  UNL1        0.0897
@<TRIPOS>BOND
     1    33    34    1
     2    34    27    1
     3    27    28   ar
     4    28    29   ar
     5    29    24    1
     6    24    25    1
     7    24    37    1
     8    37    38    1
     9    38    39    1
    10    39    40    1
    11    39    41    1
    12    24     1    1
    13     1     2    1
    14     2     3   ar
    15     3     4   ar
    16     4     5   ar
    17     5     6   ar
    18     6     7    1
    19     6     8   ar
    20     8     9   ar
    21     9    10   ar
    22    10    11   ar
    23    11    12   ar
    24    12    13    1
    25    13    14    1
    26     1    15    1
    27    15    16   ar
    28    16    17   ar
    29    17    18   ar
    30    18    19   ar
    31    19    20   ar
    32    20    21   ar
    33    21    22   ar
    34    22    23   ar
    35    29    30   ar
    36    30    31   ar
    37    31    35    1
    38    35    36    1
    39    31    32   ar
    40    32    27   ar
    41    12     2   ar
    42    23    15   ar
    43    10     4   ar
    44    23    19   ar
    45    25    26    1
