@<TRIPOS>MOLECULE
*****
 27 29 0 0 0
SMALL
GASTEIGER

@<TRIPOS>ATOM
      1 N         139.5445  142.4479  164.2692 N.ar    1  UNL1       -0.2465
      2 C         138.8994  141.1219  163.9945 C.ar    1  UNL1        0.1025
      3 C         138.9501  140.3117  165.2558 C.ar    1  UNL1        0.1051
      4 C         139.6266  141.1369  166.3101 C.ar    1  UNL1        0.1578
      5 N         139.9939  142.4572  165.7002 N.ar    1  UNL1       -0.1539
      6 C         141.0184  143.7533  162.5739 C.3     1  UNL1        0.1187
      7 C         141.1849  144.8734  161.5903 C.3     1  UNL1        0.0492
      8 C         140.0439  145.8083  161.3181 C.3     1  UNL1        0.1434
      9 O         138.7365  145.6231  162.0296 O.3     1  UNL1       -0.3516
     10 C         138.5700  144.5030  163.0133 C.3     1  UNL1        0.1674
     11 C         139.7110  143.5681  163.2854 C.3     1  UNL1        0.1488
     12 N         143.3004  141.8834  163.1182 N.1     1  UNL1       -0.1958
     13 C         142.1594  142.8183  162.8461 C.1     1  UNL1        0.0742
     14 C         138.4178  138.9204  165.4320 C.2     1  UNL1        0.2470
     15 N         138.7541  137.8562  164.4299 N.am    1  UNL1       -0.3252
     16 O         137.5492  138.5933  166.6104 O.2     1  UNL1       -0.2702
     17 H         139.3242  138.0708  163.6565 H       1  UNL1        0.1453
     18 H         138.4047  136.9430  164.5455 H       1  UNL1        0.1453
     19 N         139.8895  140.7159  167.7255 N.pl3   1  UNL1       -0.2964
     20 H         139.4388  139.9224  168.0948 H       1  UNL1        0.1537
     21 C         140.8393  141.5038  168.5782 C.ar    1  UNL1        0.0495
     22 C         140.3752  142.7602  169.2536 C.ar    1  UNL1        0.0169
     23 C         141.3250  143.5480  170.1062 C.ar    1  UNL1        0.0309
     24 C         142.7388  143.0795  170.2836 C.ar    1  UNL1        0.1402
     25 F         143.6887  143.8674  171.1364 F       1  UNL1       -0.2042
     26 C         143.2029  141.8232  169.6083 C.ar    1  UNL1        0.0309
     27 C         142.2531  141.0353  168.7556 C.ar    1  UNL1        0.0169
@<TRIPOS>BOND
     1    12    13    3
     2     6    13    1
     3     6     7    1
     4     7     8    1
     5     8     9    1
     6     9    10    1
     7    10    11    1
     8    11     1    1
     9     1     2   ar
    10     2     3   ar
    11     3    14    1
    12    14    15   am
    13    14    16    2
    14     3     4   ar
    15     4    19    1
    16    19    21    1
    17    21    22   ar
    18    22    23   ar
    19    23    24   ar
    20    24    25    1
    21    24    26   ar
    22    26    27   ar
    23     4     5   ar
    24    11     6    1
    25     5     1   ar
    26    27    21   ar
    27    15    17    1
    28    15    18    1
    29    19    20    1
@<TRIPOS>MOLECULE
*****
 27 29 0 0 0
SMALL
GASTEIGER

@<TRIPOS>ATOM
      1 N         142.3558  141.2857  166.7062 N.ar    1  UNL1       -0.2465
      2 C         143.2940  140.3828  165.9616 C.ar    1  UNL1        0.1025
      3 C         143.9339  141.1818  164.8652 C.ar    1  UNL1        0.1051
      4 C         143.3911  142.5786  164.9322 C.ar    1  UNL1        0.1578
      5 N         142.4158  142.6428  166.0700 N.ar    1  UNL1       -0.1539
      6 C         141.9264  141.2839  169.2686 C.3     1  UNL1        0.1187
      7 C         141.0772  140.8976  170.4431 C.3     1  UNL1        0.0492
      8 C         139.8081  140.1269  170.2299 C.3     1  UNL1        0.1434
      9 O         139.3882  139.7425  168.8422 O.3     1  UNL1       -0.3516
     10 C         140.2375  140.1288  167.6676 C.3     1  UNL1        0.1674
     11 C         141.5065  140.8994  167.8808 C.3     1  UNL1        0.1488
     12 N         144.4646  142.8252  169.6950 N.1     1  UNL1       -0.1958
     13 C         143.1955  142.0546  169.4818 C.1     1  UNL1        0.0742
     14 C         144.9399  140.6733  163.8756 C.2     1  UNL1        0.2470
     15 N         144.9030  139.2389  163.4382 N.am    1  UNL1       -0.3252
     16 O         145.9829  141.5991  163.3233 O.2     1  UNL1       -0.2702
     17 H         144.2184  138.6313  163.8006 H       1  UNL1        0.1453
     18 H         145.5633  138.9052  162.7886 H       1  UNL1        0.1453
     19 N         143.7591  143.7121  164.0213 N.pl3   1  UNL1       -0.2964
     20 H         144.6476  144.1305  164.0903 H       1  UNL1        0.1537
     21 C         142.7734  144.2080  163.0052 C.ar    1  UNL1        0.0495
     22 C         142.8575  143.7334  161.5847 C.ar    1  UNL1        0.0169
     23 C         141.8717  144.2294  160.5688 C.ar    1  UNL1        0.0309
     24 C         140.8020  145.2000  160.9732 C.ar    1  UNL1        0.1402
     25 F         139.8161  145.6960  159.9572 F       1  UNL1       -0.2042
     26 C         140.7179  145.6745  162.3936 C.ar    1  UNL1        0.0309
     27 C         141.7036  145.1786  163.4096 C.ar    1  UNL1        0.0169
@<TRIPOS>BOND
     1    12    13    3
     2     6    13    1
     3     6     7    1
     4     7     8    1
     5     8     9    1
     6     9    10    1
     7    10    11    1
     8    11     1    1
     9     1     2   ar
    10     2     3   ar
    11     3    14    1
    12    14    15   am
    13    14    16    2
    14     3     4   ar
    15     4    19    1
    16    19    21    1
    17    21    22   ar
    18    22    23   ar
    19    23    24   ar
    20    24    25    1
    21    24    26   ar
    22    26    27   ar
    23     4     5   ar
    24    11     6    1
    25     5     1   ar
    26    27    21   ar
    27    15    17    1
    28    15    18    1
    29    19    20    1
@<TRIPOS>MOLECULE
*****
 27 29 0 0 0
SMALL
GASTEIGER

@<TRIPOS>ATOM
      1 N         139.6279  141.0867  166.5475 N.ar    1  UNL1       -0.2465
      2 C         139.6819  142.5193  166.1063 C.ar    1  UNL1        0.1025
      3 C         138.8246  142.6605  164.8836 C.ar    1  UNL1        0.1051
      4 C         138.2407  141.3150  164.5690 C.ar    1  UNL1        0.1578
      5 N         138.7372  140.3424  165.5974 N.ar    1  UNL1       -0.1539
      6 C         141.8011  140.1757  167.6416 C.3     1  UNL1        0.1187
      7 C         142.5128  139.5902  168.8251 C.3     1  UNL1        0.0492
      8 C         141.7630  139.3301  170.0979 C.3     1  UNL1        0.1434
      9 O         140.3015  139.6555  170.1873 O.3     1  UNL1       -0.3516
     10 C         139.5898  140.2410  169.0038 C.3     1  UNL1        0.1674
     11 C         140.3396  140.5011  167.7310 C.3     1  UNL1        0.1488
     12 N         143.3008  140.6959  165.0959 N.1     1  UNL1       -0.1958
     13 C         142.5510  140.4358  166.3688 C.1     1  UNL1        0.0742
     14 C         138.5919  143.9250  164.1111 C.2     1  UNL1        0.2470
     15 N         139.4262  145.1396  164.3916 N.am    1  UNL1       -0.3252
     16 O         137.5250  143.9750  163.0579 O.2     1  UNL1       -0.2702
     17 H         140.1265  145.1068  165.0828 H       1  UNL1        0.1453
     18 H         139.2735  145.9695  163.8846 H       1  UNL1        0.1453
     19 N         137.3217  140.9979  163.4267 N.pl3   1  UNL1       -0.2964
     20 H         136.3643  141.2184  163.4894 H       1  UNL1        0.1537
     21 C         137.8615  140.3448  162.1890 C.ar    1  UNL1        0.0495
     22 C         138.0561  141.1513  160.9393 C.ar    1  UNL1        0.0169
     23 C         138.5958  140.4982  159.7016 C.ar    1  UNL1        0.0309
     24 C         138.9411  139.0385  159.7136 C.ar    1  UNL1        0.1402
     25 F         139.4809  138.3853  158.4758 F       1  UNL1       -0.2042
     26 C         138.7466  138.2320  160.9632 C.ar    1  UNL1        0.0309
     27 C         138.2068  138.8851  162.2009 C.ar    1  UNL1        0.0169
@<TRIPOS>BOND
     1    12    13    3
     2     6    13    1
     3     6     7    1
     4     7     8    1
     5     8     9    1
     6     9    10    1
     7    10    11    1
     8    11     1    1
     9     1     2   ar
    10     2     3   ar
    11     3    14    1
    12    14    15   am
    13    14    16    2
    14     3     4   ar
    15     4    19    1
    16    19    21    1
    17    21    22   ar
    18    22    23   ar
    19    23    24   ar
    20    24    25    1
    21    24    26   ar
    22    26    27   ar
    23     4     5   ar
    24    11     6    1
    25     5     1   ar
    26    27    21   ar
    27    15    17    1
    28    15    18    1
    29    19    20    1
@<TRIPOS>MOLECULE
*****
 27 29 0 0 0
SMALL
GASTEIGER

@<TRIPOS>ATOM
      1 N         140.7820  140.7211  167.2036 N.ar    1  UNL1       -0.2465
      2 C         141.1187  139.3954  166.5880 C.ar    1  UNL1        0.1025
      3 C         140.0683  139.0793  165.5649 C.ar    1  UNL1        0.1051
      4 C         139.0825  140.2097  165.5481 C.ar    1  UNL1        0.1578
      5 N         139.5236  141.2244  166.5609 N.ar    1  UNL1       -0.1539
      6 C         141.0574  141.4403  169.6849 C.3     1  UNL1        0.1187
      7 C         141.8415  142.1400  170.7552 C.3     1  UNL1        0.0492
      8 C         143.1343  142.8202  170.4146 C.3     1  UNL1        0.1434
      9 O         143.6430  142.8008  169.0037 O.3     1  UNL1       -0.3516
     10 C         142.8589  142.1011  167.9334 C.3     1  UNL1        0.1674
     11 C         141.5661  141.4209  168.2740 C.3     1  UNL1        0.1488
     12 N         138.4719  140.0798  170.3662 N.1     1  UNL1       -0.1958
     13 C         139.7647  140.7601  170.0256 C.1     1  UNL1        0.0742
     14 C         140.0134  137.8488  164.7088 C.2     1  UNL1        0.2470
     15 N         141.2567  137.0436  164.4723 N.am    1  UNL1       -0.3252
     16 O         138.7153  137.4235  164.0892 O.2     1  UNL1       -0.2702
     17 H         142.1087  137.3227  164.8789 H       1  UNL1        0.1453
     18 H         141.2207  136.2359  163.9104 H       1  UNL1        0.1453
     19 N         137.8687  140.3082  164.6723 N.pl3   1  UNL1       -0.2964
     20 H         137.0061  139.9507  164.9844 H       1  UNL1        0.1537
     21 C         137.9691  140.9513  163.3209 C.ar    1  UNL1        0.0495
     22 C         138.0422  142.4450  163.2046 C.ar    1  UNL1        0.0169
     23 C         138.1426  143.0880  161.8532 C.ar    1  UNL1        0.0309
     24 C         138.1700  142.2374  160.6181 C.ar    1  UNL1        0.1402
     25 F         138.2705  142.8804  159.2666 F       1  UNL1       -0.2042
     26 C         138.0970  140.7437  160.7343 C.ar    1  UNL1        0.0309
     27 C         137.9965  140.1006  162.0857 C.ar    1  UNL1        0.0169
@<TRIPOS>BOND
     1    12    13    3
     2     6    13    1
     3     6     7    1
     4     7     8    1
     5     8     9    1
     6     9    10    1
     7    10    11    1
     8    11     1    1
     9     1     2   ar
    10     2     3   ar
    11     3    14    1
    12    14    15   am
    13    14    16    2
    14     3     4   ar
    15     4    19    1
    16    19    21    1
    17    21    22   ar
    18    22    23   ar
    19    23    24   ar
    20    24    25    1
    21    24    26   ar
    22    26    27   ar
    23     4     5   ar
    24    11     6    1
    25     5     1   ar
    26    27    21   ar
    27    15    17    1
    28    15    18    1
    29    19    20    1
@<TRIPOS>MOLECULE
*****
 27 29 0 0 0
SMALL
GASTEIGER

@<TRIPOS>ATOM
      1 N         140.1897  142.5858  166.5211 N.ar    1  UNL1       -0.2465
      2 C         140.1378  143.6127  165.4289 C.ar    1  UNL1        0.1025
      3 C         139.1915  143.1203  164.3744 C.ar    1  UNL1        0.1051
      4 C         138.6585  141.7891  164.8149 C.ar    1  UNL1        0.1578
      5 N         139.2754  141.4588  166.1416 N.ar    1  UNL1       -0.1539
      6 C         142.4125  142.1354  167.7885 C.3     1  UNL1        0.1187
      7 C         143.2342  142.2206  169.0405 C.3     1  UNL1        0.0492
      8 C         142.6550  142.8415  170.2770 C.3     1  UNL1        0.1434
      9 O         141.2541  143.3772  170.2616 O.3     1  UNL1       -0.3516
     10 C         140.4323  143.2920  169.0096 C.3     1  UNL1        0.1674
     11 C         141.0115  142.6711  167.7731 C.3     1  UNL1        0.1488
     12 N         143.5709  140.8936  165.3155 N.1     1  UNL1       -0.1958
     13 C         142.9917  141.5145  166.5520 C.1     1  UNL1        0.0742
     14 C         138.8399  143.8337  163.1026 C.2     1  UNL1        0.2470
     15 N         137.4252  144.2641  162.8506 N.am    1  UNL1       -0.3252
     16 O         139.9029  144.1168  162.0829 O.2     1  UNL1       -0.2702
     17 H         136.7275  144.0783  163.5198 H       1  UNL1        0.1453
     18 H         137.1945  144.7324  162.0159 H       1  UNL1        0.1453
     19 N         137.6804  140.9377  164.0609 N.pl3   1  UNL1       -0.2964
     20 H         136.7483  140.8674  164.3701 H       1  UNL1        0.1537
     21 C         138.1224  140.1933  162.8359 C.ar    1  UNL1        0.0495
     22 C         138.9205  138.9307  162.9727 C.ar    1  UNL1        0.0169
     23 C         139.3624  138.1864  161.7477 C.ar    1  UNL1        0.0309
     24 C         139.0063  138.7048  160.3860 C.ar    1  UNL1        0.1402
     25 F         139.4482  137.9604  159.1609 F       1  UNL1       -0.2042
     26 C         138.2082  139.9673  160.2492 C.ar    1  UNL1        0.0309
     27 C         137.7662  140.7117  161.4742 C.ar    1  UNL1        0.0169
@<TRIPOS>BOND
     1    12    13    3
     2     6    13    1
     3     6     7    1
     4     7     8    1
     5     8     9    1
     6     9    10    1
     7    10    11    1
     8    11     1    1
     9     1     2   ar
    10     2     3   ar
    11     3    14    1
    12    14    15   am
    13    14    16    2
    14     3     4   ar
    15     4    19    1
    16    19    21    1
    17    21    22   ar
    18    22    23   ar
    19    23    24   ar
    20    24    25    1
    21    24    26   ar
    22    26    27   ar
    23     4     5   ar
    24    11     6    1
    25     5     1   ar
    26    27    21   ar
    27    15    17    1
    28    15    18    1
    29    19    20    1
@<TRIPOS>MOLECULE
*****
 27 29 0 0 0
SMALL
GASTEIGER

@<TRIPOS>ATOM
      1 N         142.6434  141.1791  166.6128 N.ar    1  UNL1       -0.2465
      2 C         143.4207  140.2873  165.6906 C.ar    1  UNL1        0.1025
      3 C         143.9652  141.1330  164.5778 C.ar    1  UNL1        0.1051
      4 C         143.5243  142.5475  164.8122 C.ar    1  UNL1        0.1578
      5 N         142.7074  142.5759  166.0699 N.ar    1  UNL1       -0.1539
      6 C         140.4387  140.5682  167.8442 C.3     1  UNL1        0.1187
      7 C         139.7230  140.1386  169.0905 C.3     1  UNL1        0.0492
      8 C         140.4963  139.8902  170.3516 C.3     1  UNL1        0.1434
      9 O         141.9852  140.0715  170.3665 O.3     1  UNL1       -0.3516
     10 C         142.7008  140.5011  169.1202 C.3     1  UNL1        0.1674
     11 C         141.9276  140.7494  167.8591 C.3     1  UNL1        0.1488
     12 N         138.8923  141.0648  165.3220 N.1     1  UNL1       -0.1958
     13 C         139.6655  140.8165  166.5831 C.1     1  UNL1        0.0742
     14 C         144.8034  140.6492  163.4318 C.2     1  UNL1        0.2470
     15 N         144.6703  139.2350  162.9498 N.am    1  UNL1       -0.3252
     16 O         145.7746  141.5796  162.7677 O.2     1  UNL1       -0.2702
     17 H         144.0329  138.6243  163.3857 H       1  UNL1        0.1453
     18 H         145.2205  138.9174  162.1976 H       1  UNL1        0.1453
     19 N         143.8442  143.7265  163.9418 N.pl3   1  UNL1       -0.2964
     20 H         144.7078  144.1894  164.0378 H       1  UNL1        0.1537
     21 C         142.8483  144.2002  162.9250 C.ar    1  UNL1        0.0495
     22 C         141.7729  145.1674  163.3224 C.ar    1  UNL1        0.0169
     23 C         140.7772  145.6411  162.3056 C.ar    1  UNL1        0.0309
     24 C         140.8567  145.1475  160.8914 C.ar    1  UNL1        0.1402
     25 F         139.8608  145.6212  159.8746 F       1  UNL1       -0.2042
     26 C         141.9320  144.1803  160.4940 C.ar    1  UNL1        0.0309
     27 C         142.9279  143.7066  161.5108 C.ar    1  UNL1        0.0169
@<TRIPOS>BOND
     1    12    13    3
     2     6    13    1
     3     6     7    1
     4     7     8    1
     5     8     9    1
     6     9    10    1
     7    10    11    1
     8    11     1    1
     9     1     2   ar
    10     2     3   ar
    11     3    14    1
    12    14    15   am
    13    14    16    2
    14     3     4   ar
    15     4    19    1
    16    19    21    1
    17    21    22   ar
    18    22    23   ar
    19    23    24   ar
    20    24    25    1
    21    24    26   ar
    22    26    27   ar
    23     4     5   ar
    24    11     6    1
    25     5     1   ar
    26    27    21   ar
    27    15    17    1
    28    15    18    1
    29    19    20    1
@<TRIPOS>MOLECULE
*****
 27 29 0 0 0
SMALL
GASTEIGER

@<TRIPOS>ATOM
      1 N         140.2022  142.3654  166.8058 N.ar    1  UNL1       -0.2465
      2 C         139.7381  141.0494  166.2557 C.ar    1  UNL1        0.1025
      3 C         138.8905  141.3244  165.0490 C.ar    1  UNL1        0.1051
      4 C         138.8308  142.8104  164.8534 C.ar    1  UNL1        0.1578
      5 N         139.6415  143.4538  165.9392 N.ar    1  UNL1       -0.1539
      6 C         142.5435  142.2700  167.9280 C.3     1  UNL1        0.1187
      7 C         143.4152  142.4637  169.1332 C.3     1  UNL1        0.0492
      8 C         142.8174  142.9464  170.4215 C.3     1  UNL1        0.1434
      9 O         141.3479  143.2354  170.5045 O.3     1  UNL1       -0.3516
     10 C         140.4762  143.0417  169.2993 C.3     1  UNL1        0.1674
     11 C         141.0740  142.5590  168.0111 C.3     1  UNL1        0.1488
     12 N         143.7391  141.3046  165.3515 N.1     1  UNL1       -0.1958
     13 C         143.1413  141.7873  166.6397 C.1     1  UNL1        0.0742
     14 C         138.2203  140.2943  164.1889 C.2     1  UNL1        0.2470
     15 N         138.4935  138.8366  164.4139 N.am    1  UNL1       -0.3252
     16 O         137.2770  140.7218  163.1039 O.2     1  UNL1       -0.2702
     17 H         139.1126  138.5560  165.1260 H       1  UNL1        0.1453
     18 H         138.0536  138.1605  163.8494 H       1  UNL1        0.1453
     19 N         138.0905  143.5272  163.7634 N.pl3   1  UNL1       -0.2964
     20 H         137.1140  143.6378  163.8220 H       1  UNL1        0.1537
     21 C         138.8380  144.0755  162.5841 C.ar    1  UNL1        0.0495
     22 C         139.1043  143.2031  161.3933 C.ar    1  UNL1        0.0169
     23 C         139.8518  143.7514  160.2142 C.ar    1  UNL1        0.0309
     24 C         140.3330  145.1720  160.2257 C.ar    1  UNL1        0.1402
     25 F         141.0806  145.7204  159.0465 F       1  UNL1       -0.2042
     26 C         140.0668  146.0444  161.4165 C.ar    1  UNL1        0.0309
     27 C         139.3193  145.4961  162.5957 C.ar    1  UNL1        0.0169
@<TRIPOS>BOND
     1    12    13    3
     2     6    13    1
     3     6     7    1
     4     7     8    1
     5     8     9    1
     6     9    10    1
     7    10    11    1
     8    11     1    1
     9     1     2   ar
    10     2     3   ar
    11     3    14    1
    12    14    15   am
    13    14    16    2
    14     3     4   ar
    15     4    19    1
    16    19    21    1
    17    21    22   ar
    18    22    23   ar
    19    23    24   ar
    20    24    25    1
    21    24    26   ar
    22    26    27   ar
    23     4     5   ar
    24    11     6    1
    25     5     1   ar
    26    27    21   ar
    27    15    17    1
    28    15    18    1
    29    19    20    1
@<TRIPOS>MOLECULE
*****
 27 29 0 0 0
SMALL
GASTEIGER

@<TRIPOS>ATOM
      1 N         139.4774  140.1985  165.9286 N.ar    1  UNL1       -0.2465
      2 C         139.2339  139.1359  164.8982 C.ar    1  UNL1        0.1025
      3 C         138.5484  139.7745  163.7268 C.ar    1  UNL1        0.1051
      4 C         138.3682  141.2318  164.0332 C.ar    1  UNL1        0.1578
      5 N         138.9423  141.4938  165.3939 N.ar    1  UNL1       -0.1539
      6 C         141.6348  139.9207  167.3493 C.3     1  UNL1        0.1187
      7 C         142.2970  139.7227  168.6805 C.3     1  UNL1        0.0492
      8 C         141.4640  139.6045  169.9224 C.3     1  UNL1        0.1434
      9 O         139.9688  139.6843  169.8329 O.3     1  UNL1       -0.3516
     10 C         139.3066  139.8823  168.5017 C.3     1  UNL1        0.1674
     11 C         140.1396  140.0005  167.2599 C.3     1  UNL1        0.1488
     12 N         143.3008  140.1571  164.8656 N.1     1  UNL1       -0.1958
     13 C         142.4678  140.0389  166.1075 C.1     1  UNL1        0.0742
     14 C         138.1186  139.0781  162.4697 C.2     1  UNL1        0.2470
     15 N         138.4576  137.6321  162.2598 N.am    1  UNL1       -0.3252
     16 O         137.3497  139.8278  161.4224 O.2     1  UNL1       -0.2702
     17 H         138.9623  137.1401  162.9472 H       1  UNL1        0.1453
     18 H         138.1755  137.1751  161.4347 H       1  UNL1        0.1453
     19 N         137.7265  142.2486  163.1363 N.pl3   1  UNL1       -0.2964
     20 H         136.7454  142.3197  163.0955 H       1  UNL1        0.1537
     21 C         138.5796  143.1570  162.3015 C.ar    1  UNL1        0.0495
     22 C         139.1588  142.6636  161.0087 C.ar    1  UNL1        0.0169
     23 C         140.0119  143.5721  160.1740 C.ar    1  UNL1        0.0309
     24 C         140.2858  144.9739  160.6320 C.ar    1  UNL1        0.1402
     25 F         141.1390  145.8825  159.7972 F       1  UNL1       -0.2042
     26 C         139.7067  145.4673  161.9246 C.ar    1  UNL1        0.0309
     27 C         138.8536  144.5589  162.7594 C.ar    1  UNL1        0.0169
@<TRIPOS>BOND
     1    12    13    3
     2     6    13    1
     3     6     7    1
     4     7     8    1
     5     8     9    1
     6     9    10    1
     7    10    11    1
     8    11     1    1
     9     1     2   ar
    10     2     3   ar
    11     3    14    1
    12    14    15   am
    13    14    16    2
    14     3     4   ar
    15     4    19    1
    16    19    21    1
    17    21    22   ar
    18    22    23   ar
    19    23    24   ar
    20    24    25    1
    21    24    26   ar
    22    26    27   ar
    23     4     5   ar
    24    11     6    1
    25     5     1   ar
    26    27    21   ar
    27    15    17    1
    28    15    18    1
    29    19    20    1
@<TRIPOS>MOLECULE
*****
 27 29 0 0 0
SMALL
GASTEIGER

@<TRIPOS>ATOM
      1 N         140.0543  141.9144  163.1727 N.ar    1  UNL1       -0.2465
      2 C         139.1949  140.7308  162.8407 C.ar    1  UNL1        0.1025
      3 C         139.5945  139.6004  163.7421 C.ar    1  UNL1        0.1051
      4 C         140.7010  140.0855  164.6312 C.ar    1  UNL1        0.1578
      5 N         140.9851  141.5156  164.2793 N.ar    1  UNL1       -0.1539
      6 C         141.0554  143.6648  161.5343 C.3     1  UNL1        0.1187
      7 C         140.9946  145.0110  160.8755 C.3     1  UNL1        0.0492
      8 C         139.8722  145.9530  161.1960 C.3     1  UNL1        0.1434
      9 O         138.8105  145.5488  162.1755 O.3     1  UNL1       -0.3516
     10 C         138.8712  144.2026  162.8343 C.3     1  UNL1        0.1674
     11 C         139.9936  143.2607  162.5138 C.3     1  UNL1        0.1488
     12 N         143.3002  141.7808  160.8931 N.1     1  UNL1       -0.1958
     13 C         142.1778  142.7228  161.2137 C.1     1  UNL1        0.0742
     14 C         138.9933  138.2262  163.7525 C.2     1  UNL1        0.2470
     15 N         138.4969  137.6149  162.4758 N.am    1  UNL1       -0.3252
     16 O         138.8884  137.4632  165.0397 O.2     1  UNL1       -0.2702
     17 H         138.5657  138.1157  161.6310 H       1  UNL1        0.1453
     18 H         138.1023  136.7130  162.4827 H       1  UNL1        0.1453
     19 N         141.4004  139.2815  165.6869 N.pl3   1  UNL1       -0.2964
     20 H         142.0007  138.5454  165.4280 H       1  UNL1        0.1537
     21 C         141.1852  139.5992  167.1370 C.ar    1  UNL1        0.0495
     22 C         142.3379  139.5464  168.0954 C.ar    1  UNL1        0.0169
     23 C         142.1226  139.8641  169.5455 C.ar    1  UNL1        0.0309
     24 C         140.7548  140.2345  170.0371 C.ar    1  UNL1        0.1402
     25 F         140.5395  140.5521  171.4873 F       1  UNL1       -0.2042
     26 C         139.6022  140.2872  169.0787 C.ar    1  UNL1        0.0309
     27 C         139.8174  139.9695  167.6286 C.ar    1  UNL1        0.0169
@<TRIPOS>BOND
     1    12    13    3
     2     6    13    1
     3     6     7    1
     4     7     8    1
     5     8     9    1
     6     9    10    1
     7    10    11    1
     8    11     1    1
     9     1     2   ar
    10     2     3   ar
    11     3    14    1
    12    14    15   am
    13    14    16    2
    14     3     4   ar
    15     4    19    1
    16    19    21    1
    17    21    22   ar
    18    22    23   ar
    19    23    24   ar
    20    24    25    1
    21    24    26   ar
    22    26    27   ar
    23     4     5   ar
    24    11     6    1
    25     5     1   ar
    26    27    21   ar
    27    15    17    1
    28    15    18    1
    29    19    20    1
