@<TRIPOS>MOLECULE
*****
 33 36 0 0 0
SMALL
GASTEIGER

@<TRIPOS>ATOM
      1 C         138.9785  140.3780  163.7383 C.ar    1  UNL1        0.0505
      2 C         138.9276  138.9219  163.3820 C.ar    1  UNL1        0.0148
      3 C         139.0058  138.4981  161.9452 C.ar    1  UNL1        0.0060
      4 C         139.1348  139.5306  160.8648 C.ar    1  UNL1        0.0553
      5 C         139.1857  140.9867  161.2210 C.ar    1  UNL1        0.0060
      6 C         139.1076  141.4104  162.6578 C.ar    1  UNL1        0.0148
      7 C         139.2129  139.1068  159.4279 C.ar    1  UNL1        0.2512
      8 N         138.5365  139.7817  158.2716 N.ar    1  UNL1       -0.1058
      9 N         138.8867  139.0258  157.0242 N.ar    1  UNL1       -0.0923
     10 C         139.7795  137.8837  157.4097 C.ar    1  UNL1        0.3086
     11 O         139.9811  137.9338  158.8952 O.2     1  UNL1       -0.4048
     12 N         140.3675  136.8695  156.4738 N.pl3   1  UNL1       -0.2871
     13 H         139.8016  136.4453  155.7889 H       1  UNL1        0.1512
     14 C         141.8177  136.5017  156.5814 C.3     1  UNL1        0.0925
     15 C         142.3890  135.4360  155.6938 C.3     1  UNL1        0.0386
     16 C         141.9953  134.0025  155.8941 C.3     1  UNL1        0.0738
     17 N         142.9419  133.0513  156.5641 N.3     1  UNL1       -0.2726
     18 C         142.7343  131.5713  156.4355 C.3     1  UNL1        0.0721
     19 C         143.6809  130.6201  157.1055 C.3     1  UNL1        0.0174
     20 C         144.8353  131.1488  157.9041 C.3     1  UNL1        0.0029
     21 C         145.0430  132.6287  158.0328 C.3     1  UNL1        0.0174
     22 C         144.0963  133.5800  157.3627 C.3     1  UNL1        0.0721
     23 O         141.4935  140.7572  165.3293 O.2     1  UNL1       -0.2697
     24 C         140.1579  140.9914  165.9705 C.2     1  UNL1        0.2517
     25 N         138.9004  140.8018  165.1751 N.am    1  UNL1       -0.2803
     26 H         138.0238  140.9555  165.5960 H       1  UNL1        0.1552
     27 C         140.0797  141.4152  167.4074 C.ar    1  UNL1        0.0811
     28 C         140.6007  142.7592  167.8223 C.ar    1  UNL1        0.0068
     29 C         140.5225  143.1829  169.2590 C.ar    1  UNL1        0.0003
     30 C         139.9234  142.2626  170.2809 C.ar    1  UNL1        0.0023
     31 C         139.4025  140.9186  169.8660 C.ar    1  UNL1        0.0298
     32 C         139.4806  140.4949  168.4292 C.ar    1  UNL1        0.1445
     33 F         138.9597  139.1508  168.0142 F       1  UNL1       -0.2040
@<TRIPOS>BOND
     1    23    24    2
     2    24    25   am
     3    25     1    1
     4     1     2   ar
     5     2     3   ar
     6     3     4   ar
     7     4     7    1
     8     7     8   ar
     9     8     9   ar
    10     9    10   ar
    11    10    12    1
    12    12    14    1
    13    14    15    1
    14    15    16    1
    15    16    17    1
    16    17    18    1
    17    18    19    1
    18    19    20    1
    19    20    21    1
    20    21    22    1
    21    10    11   ar
    22     4     5   ar
    23     5     6   ar
    24    24    27    1
    25    27    28   ar
    26    28    29   ar
    27    29    30   ar
    28    30    31   ar
    29    31    32   ar
    30    32    33    1
    31     6     1   ar
    32    32    27   ar
    33    11     7   ar
    34    22    17    1
    35    25    26    1
    36    12    13    1
@<TRIPOS>MOLECULE
*****
 33 36 0 0 0
SMALL
GASTEIGER

@<TRIPOS>ATOM
      1 C         139.0710  140.9373  164.5885 C.ar    1  UNL1        0.0505
      2 C         137.9674  141.8259  164.0961 C.ar    1  UNL1        0.0148
      3 C         137.7758  142.0379  162.6237 C.ar    1  UNL1        0.0060
      4 C         138.6877  141.3614  161.6435 C.ar    1  UNL1        0.0553
      5 C         139.7913  140.4728  162.1359 C.ar    1  UNL1        0.0060
      6 C         139.9829  140.2607  163.6083 C.ar    1  UNL1        0.0148
      7 C         138.4960  141.5735  160.1710 C.ar    1  UNL1        0.2512
      8 N         137.8937  140.5919  159.2098 N.ar    1  UNL1       -0.1058
      9 N         137.8984  141.2161  157.8459 N.ar    1  UNL1       -0.0923
     10 C         138.5036  142.5836  157.9641 C.ar    1  UNL1        0.3086
     11 O         138.8729  142.8044  159.4010 O.2     1  UNL1       -0.4048
     12 N         138.7043  143.5589  156.8422 N.pl3   1  UNL1       -0.2871
     13 H         138.0005  143.6815  156.1648 H       1  UNL1        0.1512
     14 C         139.9772  144.3473  156.7525 C.3     1  UNL1        0.0925
     15 C         140.2022  145.5150  157.6667 C.3     1  UNL1        0.0386
     16 C         141.3606  145.5092  158.6195 C.3     1  UNL1        0.0738
     17 N         141.1570  145.0900  160.0452 N.3     1  UNL1       -0.2726
     18 C         140.1241  145.7767  160.8888 C.3     1  UNL1        0.0721
     19 C         139.9205  145.3574  162.3145 C.3     1  UNL1        0.0174
     20 C         140.7497  144.2514  162.8967 C.3     1  UNL1        0.0029
     21 C         141.7826  143.5647  162.0532 C.3     1  UNL1        0.0174
     22 C         141.9863  143.9840  160.6275 C.3     1  UNL1        0.0721
     23 O         141.0065  142.6504  166.1114 O.2     1  UNL1       -0.2697
     24 C         140.2304  141.5817  166.8224 C.2     1  UNL1        0.2517
     25 N         139.2627  140.7252  166.0610 N.am    1  UNL1       -0.2803
     26 H         138.7533  140.0238  166.5278 H       1  UNL1        0.1552
     27 C         140.4221  141.3696  168.2950 C.ar    1  UNL1        0.0811
     28 C         140.6987  139.9939  168.8248 C.ar    1  UNL1        0.0068
     29 C         140.8904  139.7818  170.2973 C.ar    1  UNL1        0.0003
     30 C         140.8055  140.9455  171.2400 C.ar    1  UNL1        0.0023
     31 C         140.5289  142.3213  170.7101 C.ar    1  UNL1        0.0298
     32 C         140.3372  142.5333  169.2376 C.ar    1  UNL1        0.1445
     33 F         140.0606  143.9091  168.7077 F       1  UNL1       -0.2040
@<TRIPOS>BOND
     1    23    24    2
     2    24    25   am
     3    25     1    1
     4     1     2   ar
     5     2     3   ar
     6     3     4   ar
     7     4     7    1
     8     7     8   ar
     9     8     9   ar
    10     9    10   ar
    11    10    12    1
    12    12    14    1
    13    14    15    1
    14    15    16    1
    15    16    17    1
    16    17    18    1
    17    18    19    1
    18    19    20    1
    19    20    21    1
    20    21    22    1
    21    10    11   ar
    22     4     5   ar
    23     5     6   ar
    24    24    27    1
    25    27    28   ar
    26    28    29   ar
    27    29    30   ar
    28    30    31   ar
    29    31    32   ar
    30    32    33    1
    31     6     1   ar
    32    32    27   ar
    33    11     7   ar
    34    22    17    1
    35    25    26    1
    36    12    13    1
@<TRIPOS>MOLECULE
*****
 33 36 0 0 0
SMALL
GASTEIGER

@<TRIPOS>ATOM
      1 C         142.6001  138.0297  158.2354 C.ar    1  UNL1        0.0505
      2 C         142.6725  139.4507  157.7607 C.ar    1  UNL1        0.0148
      3 C         143.1376  140.5300  158.6929 C.ar    1  UNL1        0.0060
      4 C         143.5301  140.1882  160.0997 C.ar    1  UNL1        0.0553
      5 C         143.4577  138.7672  160.5743 C.ar    1  UNL1        0.0060
      6 C         142.9927  137.6879  159.6422 C.ar    1  UNL1        0.0148
      7 C         143.9952  141.2676  161.0318 C.ar    1  UNL1        0.2512
      8 N         145.0568  141.1282  162.0824 N.ar    1  UNL1       -0.1058
      9 N         145.1980  142.4502  162.7769 N.ar    1  UNL1       -0.0923
     10 C         144.2236  143.4066  162.1555 C.ar    1  UNL1        0.3086
     11 O         143.4803  142.6757  161.0770 O.2     1  UNL1       -0.4048
     12 N         144.0272  144.8420  162.5444 N.pl3   1  UNL1       -0.2871
     13 H         144.4505  145.5573  162.0168 H       1  UNL1        0.1512
     14 C         143.1858  145.1874  163.7372 C.3     1  UNL1        0.0925
     15 C         141.7264  144.8412  163.7512 C.3     1  UNL1        0.0386
     16 C         141.2153  143.7840  164.6845 C.3     1  UNL1        0.0738
     17 N         141.7016  142.3709  164.5555 N.3     1  UNL1       -0.2726
     18 C         141.0539  141.4415  163.5724 C.3     1  UNL1        0.0721
     19 C         141.5402  140.0285  163.4434 C.3     1  UNL1        0.0174
     20 C         142.6743  139.5447  164.2977 C.3     1  UNL1        0.0029
     21 C         143.3221  140.4741  165.2808 C.3     1  UNL1        0.0174
     22 C         142.8357  141.8872  165.4098 C.3     1  UNL1        0.0721
     23 O         144.3990  137.0707  156.0344 O.2     1  UNL1       -0.2697
     24 C         143.0345  136.4709  156.2028 C.2     1  UNL1        0.2517
     25 N         142.1351  136.9503  157.3032 N.am    1  UNL1       -0.2803
     26 H         141.2395  136.5566  157.4138 H       1  UNL1        0.1552
     27 C         142.5695  135.3915  155.2706 C.ar    1  UNL1        0.0811
     28 C         142.2696  135.7163  153.8373 C.ar    1  UNL1        0.0068
     29 C         141.8046  134.6370  152.9052 C.ar    1  UNL1        0.0003
     30 C         141.6395  133.2329  153.4065 C.ar    1  UNL1        0.0023
     31 C         141.9393  132.9081  154.8399 C.ar    1  UNL1        0.0298
     32 C         142.4043  133.9875  155.7719 C.ar    1  UNL1        0.1445
     33 F         142.7042  133.6628  157.2054 F       1  UNL1       -0.2040
@<TRIPOS>BOND
     1    23    24    2
     2    24    25   am
     3    25     1    1
     4     1     2   ar
     5     2     3   ar
     6     3     4   ar
     7     4     7    1
     8     7     8   ar
     9     8     9   ar
    10     9    10   ar
    11    10    12    1
    12    12    14    1
    13    14    15    1
    14    15    16    1
    15    16    17    1
    16    17    18    1
    17    18    19    1
    18    19    20    1
    19    20    21    1
    20    21    22    1
    21    10    11   ar
    22     4     5   ar
    23     5     6   ar
    24    24    27    1
    25    27    28   ar
    26    28    29   ar
    27    29    30   ar
    28    30    31   ar
    29    31    32   ar
    30    32    33    1
    31     6     1   ar
    32    32    27   ar
    33    11     7   ar
    34    22    17    1
    35    25    26    1
    36    12    13    1
@<TRIPOS>MOLECULE
*****
 33 36 0 0 0
SMALL
GASTEIGER

@<TRIPOS>ATOM
      1 C         138.3960  142.2468  161.7522 C.ar    1  UNL1        0.0505
      2 C         138.5613  140.7589  161.8441 C.ar    1  UNL1        0.0148
      3 C         138.5846  140.0884  163.1857 C.ar    1  UNL1        0.0060
      4 C         138.4426  140.9059  164.4353 C.ar    1  UNL1        0.0553
      5 C         138.2773  142.3938  164.3434 C.ar    1  UNL1        0.0060
      6 C         138.2540  143.0643  163.0018 C.ar    1  UNL1        0.0148
      7 C         138.4659  140.2353  165.7769 C.ar    1  UNL1        0.2512
      8 N         137.7075  138.9984  166.1577 N.ar    1  UNL1       -0.1058
      9 N         138.0246  138.6825  167.5893 N.ar    1  UNL1       -0.0923
     10 C         138.9790  139.7242  168.0934 C.ar    1  UNL1        0.3086
     11 O         139.2517  140.6838  166.9733 O.2     1  UNL1       -0.4048
     12 N         139.5588  139.7940  169.4751 N.pl3   1  UNL1       -0.2871
     13 H         138.9628  139.8240  170.2581 H       1  UNL1        0.1512
     14 C         141.0467  139.8179  169.6637 C.3     1  UNL1        0.0925
     15 C         141.7968  141.1117  169.5471 C.3     1  UNL1        0.0386
     16 C         142.9134  141.2444  168.5544 C.3     1  UNL1        0.0738
     17 N         142.6261  141.1492  167.0853 N.3     1  UNL1       -0.2726
     18 C         142.6758  139.8178  166.3961 C.3     1  UNL1        0.0721
     19 C         142.3886  139.7225  164.9270 C.3     1  UNL1        0.0174
     20 C         142.0516  140.9586  164.1470 C.3     1  UNL1        0.0029
     21 C         142.0019  142.2900  164.8361 C.3     1  UNL1        0.0174
     22 C         142.2891  142.3853  166.3053 C.3     1  UNL1        0.0721
     23 O         140.9691  142.8630  160.3382 O.2     1  UNL1       -0.2697
     24 C         139.6592  143.2255  159.7036 C.2     1  UNL1        0.2517
     25 N         138.3727  142.9174  160.4106 N.am    1  UNL1       -0.2803
     26 H         137.5129  143.1553  159.9941 H       1  UNL1        0.1552
     27 C         139.6359  143.8960  158.3620 C.ar    1  UNL1        0.0811
     28 C         138.8782  143.2750  157.2262 C.ar    1  UNL1        0.0068
     29 C         138.8550  143.9455  155.8847 C.ar    1  UNL1        0.0003
     30 C         139.5893  145.2372  155.6790 C.ar    1  UNL1        0.0023
     31 C         140.3470  145.8583  156.8148 C.ar    1  UNL1        0.0298
     32 C         140.3703  145.1877  158.1563 C.ar    1  UNL1        0.1445
     33 F         141.1280  145.8088  159.2922 F       1  UNL1       -0.2040
@<TRIPOS>BOND
     1    23    24    2
     2    24    25   am
     3    25     1    1
     4     1     2   ar
     5     2     3   ar
     6     3     4   ar
     7     4     7    1
     8     7     8   ar
     9     8     9   ar
    10     9    10   ar
    11    10    12    1
    12    12    14    1
    13    14    15    1
    14    15    16    1
    15    16    17    1
    16    17    18    1
    17    18    19    1
    18    19    20    1
    19    20    21    1
    20    21    22    1
    21    10    11   ar
    22     4     5   ar
    23     5     6   ar
    24    24    27    1
    25    27    28   ar
    26    28    29   ar
    27    29    30   ar
    28    30    31   ar
    29    31    32   ar
    30    32    33    1
    31     6     1   ar
    32    32    27   ar
    33    11     7   ar
    34    22    17    1
    35    25    26    1
    36    12    13    1
@<TRIPOS>MOLECULE
*****
 33 36 0 0 0
SMALL
GASTEIGER

@<TRIPOS>ATOM
      1 C         140.3251  143.2963  164.6663 C.ar    1  UNL1        0.0505
      2 C         140.6508  142.3332  163.5635 C.ar    1  UNL1        0.0148
      3 C         140.8624  142.8364  162.1664 C.ar    1  UNL1        0.0060
      4 C         140.7484  144.3028  161.8721 C.ar    1  UNL1        0.0553
      5 C         140.4227  145.2660  162.9749 C.ar    1  UNL1        0.0060
      6 C         140.2111  144.7628  164.3720 C.ar    1  UNL1        0.0148
      7 C         140.9600  144.8061  160.4750 C.ar    1  UNL1        0.2512
      8 N         142.2072  144.6413  159.6580 N.ar    1  UNL1       -0.1058
      9 N         141.9797  145.2958  158.3276 N.ar    1  UNL1       -0.0923
     10 C         140.5919  145.8651  158.3224 C.ar    1  UNL1        0.3086
     11 O         139.9618  145.5624  159.6495 O.2     1  UNL1       -0.4048
     12 N         139.9475  146.6068  157.1890 N.pl3   1  UNL1       -0.2871
     13 H         139.1287  147.1306  157.3458 H       1  UNL1        0.1512
     14 C         140.5504  146.5505  155.8167 C.3     1  UNL1        0.0925
     15 C         139.7532  147.0000  154.6282 C.3     1  UNL1        0.0386
     16 C         140.2349  148.1491  153.7931 C.3     1  UNL1        0.0738
     17 N         139.6622  149.5196  154.0014 N.3     1  UNL1       -0.2726
     18 C         139.7099  150.5290  152.8929 C.3     1  UNL1        0.0721
     19 C         139.1371  151.8995  153.1013 C.3     1  UNL1        0.0174
     20 C         138.5166  152.2608  154.4182 C.3     1  UNL1        0.0029
     21 C         138.4689  151.2514  155.5268 C.3     1  UNL1        0.0174
     22 C         139.0417  149.8808  155.3184 C.3     1  UNL1        0.0721
     23 O         142.6802  142.5126  166.3514 O.2     1  UNL1       -0.2697
     24 C         141.2910  142.4013  166.9060 C.2     1  UNL1        0.2517
     25 N         140.1134  142.7931  166.0635 N.am    1  UNL1       -0.2803
     26 H         139.2016  142.7200  166.4275 H       1  UNL1        0.1552
     27 C         141.0793  141.8980  168.3031 C.ar    1  UNL1        0.0811
     28 C         141.8080  142.5360  169.4485 C.ar    1  UNL1        0.0068
     29 C         141.5963  142.0327  170.8456 C.ar    1  UNL1        0.0003
     30 C         140.6559  140.8915  171.0973 C.ar    1  UNL1        0.0023
     31 C         139.9272  140.2536  169.9519 C.ar    1  UNL1        0.0298
     32 C         140.1389  140.7568  168.5548 C.ar    1  UNL1        0.1445
     33 F         139.4102  140.1189  167.4093 F       1  UNL1       -0.2040
@<TRIPOS>BOND
     1    23    24    2
     2    24    25   am
     3    25     1    1
     4     1     2   ar
     5     2     3   ar
     6     3     4   ar
     7     4     7    1
     8     7     8   ar
     9     8     9   ar
    10     9    10   ar
    11    10    12    1
    12    12    14    1
    13    14    15    1
    14    15    16    1
    15    16    17    1
    16    17    18    1
    17    18    19    1
    18    19    20    1
    19    20    21    1
    20    21    22    1
    21    10    11   ar
    22     4     5   ar
    23     5     6   ar
    24    24    27    1
    25    27    28   ar
    26    28    29   ar
    27    29    30   ar
    28    30    31   ar
    29    31    32   ar
    30    32    33    1
    31     6     1   ar
    32    32    27   ar
    33    11     7   ar
    34    22    17    1
    35    25    26    1
    36    12    13    1
@<TRIPOS>MOLECULE
*****
 33 36 0 0 0
SMALL
GASTEIGER

@<TRIPOS>ATOM
      1 C         143.0446  142.8036  158.3356 C.ar    1  UNL1        0.0505
      2 C         143.3024  142.9724  159.8036 C.ar    1  UNL1        0.0148
      3 C         142.1681  142.8751  160.7803 C.ar    1  UNL1        0.0060
      4 C         140.7761  142.6090  160.2889 C.ar    1  UNL1        0.0553
      5 C         140.5183  142.4402  158.8210 C.ar    1  UNL1        0.0060
      6 C         141.6526  142.5375  157.8443 C.ar    1  UNL1        0.0148
      7 C         139.6418  142.5117  161.2657 C.ar    1  UNL1        0.2512
      8 N         138.3725  143.3101  161.2252 N.ar    1  UNL1       -0.1058
      9 N         137.5238  142.8908  162.3888 N.ar    1  UNL1       -0.0923
     10 C         138.2687  141.8333  163.1485 C.ar    1  UNL1        0.3086
     11 O         139.5776  141.5990  162.4543 O.2     1  UNL1       -0.4048
     12 N         137.7887  141.1330  164.3851 N.pl3   1  UNL1       -0.2871
     13 H         136.8325  140.9256  164.4937 H       1  UNL1        0.1512
     14 C         138.7658  140.7487  165.4564 C.3     1  UNL1        0.0925
     15 C         139.7196  141.7694  166.0028 C.3     1  UNL1        0.0386
     16 C         141.1797  141.6856  165.6696 C.3     1  UNL1        0.0738
     17 N         141.8567  142.8280  164.9723 N.3     1  UNL1       -0.2726
     18 C         143.3405  142.8006  164.7544 C.3     1  UNL1        0.0721
     19 C         144.0175  143.9430  164.0570 C.3     1  UNL1        0.0174
     20 C         143.2106  145.1131  163.5775 C.3     1  UNL1        0.0029
     21 C         141.7268  145.1406  163.7953 C.3     1  UNL1        0.0174
     22 C         141.0498  143.9981  164.4927 C.3     1  UNL1        0.0721
     23 O         144.6393  140.3595  157.6403 O.2     1  UNL1       -0.2697
     24 C         144.9762  141.6789  157.0113 C.2     1  UNL1        0.2517
     25 N         144.1789  142.9009  157.3589 N.am    1  UNL1       -0.2803
     26 H         144.4001  143.7668  156.9460 H       1  UNL1        0.1552
     27 C         146.1105  141.7761  156.0345 C.ar    1  UNL1        0.0811
     28 C         145.9361  141.2780  154.6305 C.ar    1  UNL1        0.0068
     29 C         147.0704  141.3753  153.6538 C.ar    1  UNL1        0.0003
     30 C         148.3791  141.9707  154.0812 C.ar    1  UNL1        0.0023
     31 C         148.5536  142.4689  155.4853 C.ar    1  UNL1        0.0298
     32 C         147.4193  142.3716  156.4619 C.ar    1  UNL1        0.1445
     33 F         147.5937  142.8697  157.8661 F       1  UNL1       -0.2040
@<TRIPOS>BOND
     1    23    24    2
     2    24    25   am
     3    25     1    1
     4     1     2   ar
     5     2     3   ar
     6     3     4   ar
     7     4     7    1
     8     7     8   ar
     9     8     9   ar
    10     9    10   ar
    11    10    12    1
    12    12    14    1
    13    14    15    1
    14    15    16    1
    15    16    17    1
    16    17    18    1
    17    18    19    1
    18    19    20    1
    19    20    21    1
    20    21    22    1
    21    10    11   ar
    22     4     5   ar
    23     5     6   ar
    24    24    27    1
    25    27    28   ar
    26    28    29   ar
    27    29    30   ar
    28    30    31   ar
    29    31    32   ar
    30    32    33    1
    31     6     1   ar
    32    32    27   ar
    33    11     7   ar
    34    22    17    1
    35    25    26    1
    36    12    13    1
@<TRIPOS>MOLECULE
*****
 33 36 0 0 0
SMALL
GASTEIGER

@<TRIPOS>ATOM
      1 C         142.1318  138.8534  164.3814 C.ar    1  UNL1        0.0505
      2 C         142.8541  139.8139  163.4838 C.ar    1  UNL1        0.0148
      3 C         142.8230  139.6189  161.9968 C.ar    1  UNL1        0.0060
      4 C         142.0696  138.4634  161.4075 C.ar    1  UNL1        0.0553
      5 C         141.3473  137.5029  162.3052 C.ar    1  UNL1        0.0060
      6 C         141.3785  137.6979  163.7921 C.ar    1  UNL1        0.0148
      7 C         142.0385  138.2684  159.9205 C.ar    1  UNL1        0.2512
      8 N         140.9044  138.6291  159.0075 N.ar    1  UNL1       -0.1058
      9 N         141.3010  138.2622  157.6082 N.ar    1  UNL1       -0.0923
     10 C         142.6803  137.6746  157.6565 C.ar    1  UNL1        0.3086
     11 O         143.1361  137.6785  159.0855 O.2     1  UNL1       -0.4048
     12 N         143.4659  137.1715  156.4818 N.pl3   1  UNL1       -0.2871
     13 H         144.4491  137.2224  156.4890 H       1  UNL1        0.1512
     14 C         142.7535  136.5910  155.2963 C.3     1  UNL1        0.0925
     15 C         142.8520  135.1224  155.0073 C.3     1  UNL1        0.0386
     16 C         142.2239  134.1306  155.9409 C.3     1  UNL1        0.0738
     17 N         143.0731  133.0964  156.6185 N.3     1  UNL1       -0.2726
     18 C         144.2997  133.5116  157.3755 C.3     1  UNL1        0.0721
     19 C         145.1489  132.4774  158.0530 C.3     1  UNL1        0.0174
     20 C         144.7716  131.0278  157.9736 C.3     1  UNL1        0.0029
     21 C         143.5450  130.6125  157.2166 C.3     1  UNL1        0.0174
     22 C         142.6958  131.6468  156.5390 C.3     1  UNL1        0.0721
     23 O         140.4495  140.9891  165.6497 O.2     1  UNL1       -0.2697
     24 C         141.3217  140.1162  166.5025 C.2     1  UNL1        0.2517
     25 N         142.1629  139.0484  165.8684 N.am    1  UNL1       -0.2803
     26 H         142.7354  138.4755  166.4281 H       1  UNL1        0.1552
     27 C         141.3528  140.3112  167.9895 C.ar    1  UNL1        0.0811
     28 C         142.6264  140.7249  168.6652 C.ar    1  UNL1        0.0068
     29 C         142.6575  140.9199  170.1521 C.ar    1  UNL1        0.0003
     30 C         141.4149  140.7011  170.9634 C.ar    1  UNL1        0.0023
     31 C         140.1412  140.2873  170.2876 C.ar    1  UNL1        0.0298
     32 C         140.1102  140.0924  168.8007 C.ar    1  UNL1        0.1445
     33 F         138.8365  139.6786  168.1249 F       1  UNL1       -0.2040
@<TRIPOS>BOND
     1    23    24    2
     2    24    25   am
     3    25     1    1
     4     1     2   ar
     5     2     3   ar
     6     3     4   ar
     7     4     7    1
     8     7     8   ar
     9     8     9   ar
    10     9    10   ar
    11    10    12    1
    12    12    14    1
    13    14    15    1
    14    15    16    1
    15    16    17    1
    16    17    18    1
    17    18    19    1
    18    19    20    1
    19    20    21    1
    20    21    22    1
    21    10    11   ar
    22     4     5   ar
    23     5     6   ar
    24    24    27    1
    25    27    28   ar
    26    28    29   ar
    27    29    30   ar
    28    30    31   ar
    29    31    32   ar
    30    32    33    1
    31     6     1   ar
    32    32    27   ar
    33    11     7   ar
    34    22    17    1
    35    25    26    1
    36    12    13    1
@<TRIPOS>MOLECULE
*****
 33 36 0 0 0
SMALL
GASTEIGER

@<TRIPOS>ATOM
      1 C         143.2945  139.5215  164.3313 C.ar    1  UNL1        0.0505
      2 C         142.5148  138.3434  163.8272 C.ar    1  UNL1        0.0148
      3 C         142.4761  138.0427  162.3582 C.ar    1  UNL1        0.0060
      4 C         143.2169  138.9203  161.3932 C.ar    1  UNL1        0.0553
      5 C         143.9965  140.0984  161.8973 C.ar    1  UNL1        0.0060
      6 C         144.0353  140.3990  163.3663 C.ar    1  UNL1        0.0148
      7 C         143.1781  138.6196  159.9241 C.ar    1  UNL1        0.2512
      8 N         143.9309  139.3529  158.8539 N.ar    1  UNL1       -0.1058
      9 N         143.5978  138.7194  157.5357 N.ar    1  UNL1       -0.0923
     10 C         142.6390  137.5945  157.7913 C.ar    1  UNL1        0.3086
     11 O         142.3796  137.5328  159.2674 O.2     1  UNL1       -0.4048
     12 N         142.0440  136.6900  156.7530 N.pl3   1  UNL1       -0.2871
     13 H         141.1733  136.2601  156.9153 H       1  UNL1        0.1512
     14 C         142.7757  136.4405  155.4676 C.3     1  UNL1        0.0925
     15 C         143.2837  135.0657  155.1483 C.3     1  UNL1        0.0386
     16 C         142.5447  133.8589  155.6458 C.3     1  UNL1        0.0738
     17 N         143.2669  132.8127  156.4419 N.3     1  UNL1       -0.2726
     18 C         142.7484  131.4056  156.4764 C.3     1  UNL1        0.0721
     19 C         143.4706  130.3594  157.2725 C.3     1  UNL1        0.0174
     20 C         144.7114  130.7203  158.0342 C.3     1  UNL1        0.0029
     21 C         145.2299  132.1274  157.9997 C.3     1  UNL1        0.0174
     22 C         144.5077  133.1736  157.2036 C.3     1  UNL1        0.0721
     23 O         140.9970  140.9461  165.6321 O.2     1  UNL1       -0.2697
     24 C         142.1845  140.5345  166.4507 C.2     1  UNL1        0.2517
     25 N         143.3333  139.8222  165.8004 N.am    1  UNL1       -0.2803
     26 H         144.1127  139.5520  166.3377 H       1  UNL1        0.1552
     27 C         142.2234  140.8352  167.9198 C.ar    1  UNL1        0.0811
     28 C         141.4381  139.9909  168.8792 C.ar    1  UNL1        0.0068
     29 C         141.4769  140.2916  170.3482 C.ar    1  UNL1        0.0003
     30 C         142.3011  141.4366  170.8578 C.ar    1  UNL1        0.0023
     31 C         143.0864  142.2809  169.8985 C.ar    1  UNL1        0.0298
     32 C         143.0475  141.9802  168.4295 C.ar    1  UNL1        0.1445
     33 F         143.8329  142.8245  167.4700 F       1  UNL1       -0.2040
@<TRIPOS>BOND
     1    23    24    2
     2    24    25   am
     3    25     1    1
     4     1     2   ar
     5     2     3   ar
     6     3     4   ar
     7     4     7    1
     8     7     8   ar
     9     8     9   ar
    10     9    10   ar
    11    10    12    1
    12    12    14    1
    13    14    15    1
    14    15    16    1
    15    16    17    1
    16    17    18    1
    17    18    19    1
    18    19    20    1
    19    20    21    1
    20    21    22    1
    21    10    11   ar
    22     4     5   ar
    23     5     6   ar
    24    24    27    1
    25    27    28   ar
    26    28    29   ar
    27    29    30   ar
    28    30    31   ar
    29    31    32   ar
    30    32    33    1
    31     6     1   ar
    32    32    27   ar
    33    11     7   ar
    34    22    17    1
    35    25    26    1
    36    12    13    1
@<TRIPOS>MOLECULE
*****
 33 36 0 0 0
SMALL
GASTEIGER

@<TRIPOS>ATOM
      1 C         142.5183  137.7292  157.5477 C.ar    1  UNL1        0.0505
      2 C         142.4998  139.0256  156.7934 C.ar    1  UNL1        0.0148
      3 C         142.6984  140.3208  157.5234 C.ar    1  UNL1        0.0060
      4 C         142.9157  140.3196  159.0076 C.ar    1  UNL1        0.0553
      5 C         142.9342  139.0232  159.7618 C.ar    1  UNL1        0.0060
      6 C         142.7355  137.7280  159.0319 C.ar    1  UNL1        0.0148
      7 C         143.1143  141.6150  159.7375 C.ar    1  UNL1        0.2512
      8 N         144.4111  142.1234  160.2941 N.ar    1  UNL1       -0.1058
      9 N         144.1494  143.4519  160.9396 N.ar    1  UNL1       -0.0923
     10 C         142.6908  143.7645  160.7819 C.ar    1  UNL1        0.3086
     11 O         142.0511  142.6292  160.0390 O.2     1  UNL1       -0.4048
     12 N         141.9942  144.9961  161.2798 N.pl3   1  UNL1       -0.2871
     13 H         141.8592  145.7628  160.6772 H       1  UNL1        0.1512
     14 C         141.5034  145.0595  162.6957 C.3     1  UNL1        0.0925
     15 C         142.4812  145.0019  163.8318 C.3     1  UNL1        0.0386
     16 C         142.5480  143.7825  164.7027 C.3     1  UNL1        0.0738
     17 N         143.3159  142.5771  164.2476 N.3     1  UNL1       -0.2726
     18 C         144.8112  142.5522  164.3643 C.3     1  UNL1        0.0721
     19 C         145.5791  141.3468  163.9092 C.3     1  UNL1        0.0174
     20 C         144.8519  140.1661  163.3375 C.3     1  UNL1        0.0029
     21 C         143.3566  140.1908  163.2208 C.3     1  UNL1        0.0174
     22 C         142.5887  141.3963  163.6759 C.3     1  UNL1        0.0721
     23 O         144.6560  136.6982  155.7126 O.2     1  UNL1       -0.2697
     24 C         143.3885  135.9184  155.9002 C.2     1  UNL1        0.2517
     25 N         142.3196  136.4338  156.8177 N.am    1  UNL1       -0.2803
     26 H         141.4877  135.9220  156.9409 H       1  UNL1        0.1552
     27 C         143.1898  134.6231  155.1703 C.ar    1  UNL1        0.0811
     28 C         142.4321  134.6002  153.8759 C.ar    1  UNL1        0.0068
     29 C         142.2335  133.3049  153.1460 C.ar    1  UNL1        0.0003
     30 C         142.7925  132.0325  153.7105 C.ar    1  UNL1        0.0023
     31 C         143.5501  132.0555  155.0049 C.ar    1  UNL1        0.0298
     32 C         143.7488  133.3507  155.7347 C.ar    1  UNL1        0.1445
     33 F         144.5065  133.3737  157.0292 F       1  UNL1       -0.2040
@<TRIPOS>BOND
     1    23    24    2
     2    24    25   am
     3    25     1    1
     4     1     2   ar
     5     2     3   ar
     6     3     4   ar
     7     4     7    1
     8     7     8   ar
     9     8     9   ar
    10     9    10   ar
    11    10    12    1
    12    12    14    1
    13    14    15    1
    14    15    16    1
    15    16    17    1
    16    17    18    1
    17    18    19    1
    18    19    20    1
    19    20    21    1
    20    21    22    1
    21    10    11   ar
    22     4     5   ar
    23     5     6   ar
    24    24    27    1
    25    27    28   ar
    26    28    29   ar
    27    29    30   ar
    28    30    31   ar
    29    31    32   ar
    30    32    33    1
    31     6     1   ar
    32    32    27   ar
    33    11     7   ar
    34    22    17    1
    35    25    26    1
    36    12    13    1
