@<TRIPOS>MOLECULE
*****
 35 38 0 0 0
SMALL
GASTEIGER

@<TRIPOS>ATOM
      1 C         142.1994  140.1611  164.2528 C.2     1  UNL1        0.1397
      2 C         142.6871  140.4623  162.8667 C.2     1  UNL1        0.1355
      3 N         142.2344  141.7093  162.1667 N.pl3   1  UNL1       -0.1998
      4 C         141.2938  142.6551  162.8528 C.2     1  UNL1        0.3442
      5 N         140.8061  142.3539  164.2389 N.2     1  UNL1       -0.0580
      6 C         141.2589  141.1069  164.9389 C.3     1  UNL1        0.2692
      7 H         142.5545  141.9070  161.2569 H       1  UNL1        0.2983
      8 C         140.7711  140.8057  166.3251 C.ar    1  UNL1        0.0371
      9 C         139.5107  140.0166  166.5217 C.ar    1  UNL1        0.0030
     10 C         139.0229  139.7154  167.9078 C.ar    1  UNL1        0.0295
     11 C         139.7955  140.2033  169.0974 C.ar    1  UNL1        0.1406
     12 F         139.3077  139.9021  170.4834 F       1  UNL1       -0.2042
     13 C         141.0559  140.9924  168.9008 C.ar    1  UNL1        0.0362
     14 C         141.5437  141.2936  167.5146 C.ar    1  UNL1        0.0372
     15 BR        142.8041  142.0827  167.3180 Br      1  UNL1       -0.0491
     16 C         140.8411  143.9021  162.1529 C.ar    1  UNL1        0.1931
     17 N         141.0737  144.2368  160.7093 N.ar    1  UNL1       -0.2297
     18 C         140.4525  145.5750  160.4378 C.ar    1  UNL1        0.1067
     19 C         139.8361  146.0672  161.7136 C.ar    1  UNL1        0.0577
     20 S         140.0762  145.0334  162.7735 S.2     1  UNL1       -0.0586
     21 C         142.6522  138.9141  164.9527 C.2     1  UNL1        0.3447
     22 O         143.9894  138.8784  165.6314 O.2     1  UNL1       -0.2450
     23 O         141.7678  137.7027  164.9741 O.3     1  UNL1       -0.4455
     24 C         139.6008  137.6338  163.5424 C.3     1  UNL1        0.0513
     25 C         141.0463  137.2789  163.7292 C.3     1  UNL1        0.2089
     26 C         143.6277  139.5164  162.1805 C.3     1  UNL1        0.1405
     27 N         143.5059  139.2765  160.7048 N.3     1  UNL1       -0.2614
     28 C         142.8330  138.0346  160.1999 C.3     1  UNL1        0.1050
     29 C         142.7112  137.7946  158.7242 C.3     1  UNL1        0.1599
     30 O         143.2624  138.7965  157.7535 O.3     1  UNL1       -0.3478
     31 C         143.9353  140.0384  158.2584 C.3     1  UNL1        0.1671
     32 C         144.0571  140.2784  159.7340 C.3     1  UNL1        0.1082
     33 C         144.4864  141.0403  157.2876 C.2     1  UNL1        0.0787
     34 O         144.0103  142.4623  157.3260 O.co2   1  UNL1       -0.5467
     35 O         145.5136  140.6203  156.2784 O.co2   1  UNL1       -0.5467
@<TRIPOS>UNITY_ATOM_ATTR
34 1
charge -1
@<TRIPOS>BOND
     1    24    25    1
     2    25    23    1
     3    23    21    1
     4    21    22    2
     5    21     1    1
     6     1     2    2
     7     2    26    1
     8    26    27    1
     9    27    28    1
    10    28    29    1
    11    29    30    1
    12    30    31    1
    13    31    33    1
    14    33    34   ar
    15    33    35   ar
    16    31    32    1
    17     2     3    1
    18     3     4    1
    19     4    16    1
    20    16    17   ar
    21    17    18   ar
    22    18    19   ar
    23    19    20   ar
    24     4     5    2
    25     5     6    1
    26     6     8    1
    27     8     9   ar
    28     9    10   ar
    29    10    11   ar
    30    11    12    1
    31    11    13   ar
    32    13    14   ar
    33    14    15    1
    34     6     1    1
    35    14     8   ar
    36    32    27    1
    37    20    16   ar
    38     3     7    1
@<TRIPOS>MOLECULE
*****
 35 38 0 0 0
SMALL
GASTEIGER

@<TRIPOS>ATOM
      1 C         141.4551  139.7039  164.0790 C.2     1  UNL1        0.1397
      2 C         141.7432  139.9321  162.6247 C.2     1  UNL1        0.1355
      3 N         141.4424  141.2623  162.0003 N.pl3   1  UNL1       -0.1998
      4 C         140.8534  142.3643  162.8300 C.2     1  UNL1        0.3442
      5 N         140.5653  142.1361  164.2843 N.2     1  UNL1       -0.0580
      6 C         140.8662  140.8059  164.9087 C.3     1  UNL1        0.2692
      7 H         141.6315  141.4121  161.0458 H       1  UNL1        0.2983
      8 C         140.5780  140.5777  166.3631 C.ar    1  UNL1        0.0371
      9 C         141.6013  140.9441  167.3968 C.ar    1  UNL1        0.0030
     10 C         141.3132  140.7160  168.8511 C.ar    1  UNL1        0.0295
     11 C         140.0018  140.1214  169.2717 C.ar    1  UNL1        0.1406
     12 F         139.7138  139.8933  170.7259 F       1  UNL1       -0.2042
     13 C         138.9786  139.7550  168.2379 C.ar    1  UNL1        0.0362
     14 C         139.2667  139.9832  166.7836 C.ar    1  UNL1        0.0372
     15 BR        138.2434  139.6168  165.7498 Br      1  UNL1       -0.0491
     16 C         140.5525  143.6946  162.2056 C.ar    1  UNL1        0.1931
     17 N         140.9121  144.1157  160.8116 N.ar    1  UNL1       -0.2297
     18 C         140.4211  145.5187  160.6099 C.ar    1  UNL1        0.1067
     19 C         139.7579  145.9646  161.8793 C.ar    1  UNL1        0.0577
     20 S         139.8391  144.8372  162.8655 S.2     1  UNL1       -0.0586
     21 C         141.7560  138.3736  164.7034 C.2     1  UNL1        0.3447
     22 O         140.7367  137.2743  164.6543 O.2     1  UNL1       -0.2450
     23 O         143.0762  138.1427  165.3770 O.3     1  UNL1       -0.4455
     24 C         145.0704  139.4077  164.2937 C.3     1  UNL1        0.0513
     25 C         144.0970  139.2408  165.4228 C.3     1  UNL1        0.2089
     26 C         142.3323  138.8300  161.7948 C.3     1  UNL1        0.1405
     27 N         141.7788  138.5403  160.4312 N.3     1  UNL1       -0.2614
     28 C         140.3292  138.7936  160.1407 C.3     1  UNL1        0.1050
     29 C         139.7758  138.5039  158.7769 C.3     1  UNL1        0.1599
     30 O         140.6720  137.9607  157.7037 O.3     1  UNL1       -0.3478
     31 C         142.1216  137.7074  157.9942 C.3     1  UNL1        0.1671
     32 C         142.6750  137.9971  159.3579 C.3     1  UNL1        0.1082
     33 C         143.0178  137.1642  156.9210 C.2     1  UNL1        0.0787
     34 O         143.0097  135.6972  156.6084 O.co2   1  UNL1       -0.5467
     35 O         143.9222  138.0882  156.1603 O.co2   1  UNL1       -0.5467
@<TRIPOS>UNITY_ATOM_ATTR
34 1
charge -1
@<TRIPOS>BOND
     1    24    25    1
     2    25    23    1
     3    23    21    1
     4    21    22    2
     5    21     1    1
     6     1     2    2
     7     2    26    1
     8    26    27    1
     9    27    28    1
    10    28    29    1
    11    29    30    1
    12    30    31    1
    13    31    33    1
    14    33    34   ar
    15    33    35   ar
    16    31    32    1
    17     2     3    1
    18     3     4    1
    19     4    16    1
    20    16    17   ar
    21    17    18   ar
    22    18    19   ar
    23    19    20   ar
    24     4     5    2
    25     5     6    1
    26     6     8    1
    27     8     9   ar
    28     9    10   ar
    29    10    11   ar
    30    11    12    1
    31    11    13   ar
    32    13    14   ar
    33    14    15    1
    34     6     1    1
    35    14     8   ar
    36    32    27    1
    37    20    16   ar
    38     3     7    1
@<TRIPOS>MOLECULE
*****
 35 38 0 0 0
SMALL
GASTEIGER

@<TRIPOS>ATOM
      1 C         143.4582  141.1782  161.2441 C.2     1  UNL1        0.1397
      2 C         143.4084  141.5414  159.7896 C.2     1  UNL1        0.1355
      3 N         143.0283  140.5079  158.7711 N.pl3   1  UNL1       -0.1998
      4 C         142.6979  139.1112  159.2071 C.2     1  UNL1        0.3442
      5 N         142.7477  138.7480  160.6616 N.2     1  UNL1       -0.0580
      6 C         143.1279  139.7815  161.6801 C.3     1  UNL1        0.2692
      7 H         142.9956  140.7462  157.8165 H       1  UNL1        0.2983
      8 C         143.1777  139.4183  163.1346 C.ar    1  UNL1        0.0371
      9 C         144.4937  139.1141  163.7870 C.ar    1  UNL1        0.0030
     10 C         144.5436  138.7509  165.2415 C.ar    1  UNL1        0.0295
     11 C         143.2774  138.6919  166.0437 C.ar    1  UNL1        0.1406
     12 F         143.3272  138.3287  167.4981 F       1  UNL1       -0.2042
     13 C         141.9614  138.9961  165.3913 C.ar    1  UNL1        0.0362
     14 C         141.9116  139.3593  163.9367 C.ar    1  UNL1        0.0372
     15 BR        140.5956  139.6635  163.2843 Br      1  UNL1       -0.0491
     16 C         142.3178  138.0777  158.1886 C.ar    1  UNL1        0.1931
     17 N         143.1355  136.8825  157.7976 N.ar    1  UNL1       -0.2297
     18 C         142.3763  136.1240  156.7496 C.ar    1  UNL1        0.1067
     19 C         141.0893  136.8505  156.4929 C.ar    1  UNL1        0.0577
     20 S         141.0531  138.0579  157.3822 S.2     1  UNL1       -0.0586
     21 C         143.8384  142.2117  162.2626 C.2     1  UNL1        0.3447
     22 O         145.2825  142.5525  162.4823 O.2     1  UNL1       -0.2450
     23 O         142.7744  142.9045  163.0614 O.3     1  UNL1       -0.4455
     24 C         143.5559  142.3950  165.4862 C.3     1  UNL1        0.0513
     25 C         143.0680  143.3706  164.4565 C.3     1  UNL1        0.2089
     26 C         143.7388  142.9381  159.3535 C.3     1  UNL1        0.1405
     27 N         142.6404  143.9378  159.1437 N.3     1  UNL1       -0.2614
     28 C         142.4734  144.5992  157.8077 C.3     1  UNL1        0.1050
     29 C         141.3750  145.5990  157.5979 C.3     1  UNL1        0.1599
     30 O         140.4436  145.9373  158.7240 O.3     1  UNL1       -0.3478
     31 C         140.6106  145.2760  160.0599 C.3     1  UNL1        0.1671
     32 C         141.7090  144.2763  160.2698 C.3     1  UNL1        0.1082
     33 C         139.6793  145.6143  161.1859 C.2     1  UNL1        0.0787
     34 O         138.7364  144.5757  161.7172 O.co2   1  UNL1       -0.5467
     35 O         139.6908  146.9914  161.7808 O.co2   1  UNL1       -0.5467
@<TRIPOS>UNITY_ATOM_ATTR
34 1
charge -1
@<TRIPOS>BOND
     1    24    25    1
     2    25    23    1
     3    23    21    1
     4    21    22    2
     5    21     1    1
     6     1     2    2
     7     2    26    1
     8    26    27    1
     9    27    28    1
    10    28    29    1
    11    29    30    1
    12    30    31    1
    13    31    33    1
    14    33    34   ar
    15    33    35   ar
    16    31    32    1
    17     2     3    1
    18     3     4    1
    19     4    16    1
    20    16    17   ar
    21    17    18   ar
    22    18    19   ar
    23    19    20   ar
    24     4     5    2
    25     5     6    1
    26     6     8    1
    27     8     9   ar
    28     9    10   ar
    29    10    11   ar
    30    11    12    1
    31    11    13   ar
    32    13    14   ar
    33    14    15    1
    34     6     1    1
    35    14     8   ar
    36    32    27    1
    37    20    16   ar
    38     3     7    1
@<TRIPOS>MOLECULE
*****
 35 38 0 0 0
SMALL
GASTEIGER

@<TRIPOS>ATOM
      1 C         142.0502  143.2402  160.4784 C.2     1  UNL1        0.1397
      2 C         142.9450  143.2251  159.2747 C.2     1  UNL1        0.1355
      3 N         142.5676  144.0043  158.0498 N.pl3   1  UNL1       -0.1998
      4 C         141.2955  144.7987  158.0286 C.2     1  UNL1        0.3442
      5 N         140.4006  144.8138  159.2323 N.2     1  UNL1       -0.0580
      6 C         140.7780  144.0345  160.4572 C.3     1  UNL1        0.2692
      7 H         143.1550  143.9944  157.2597 H       1  UNL1        0.2983
      8 C         139.8831  144.0497  161.6610 C.ar    1  UNL1        0.0371
      9 C         140.1538  145.0056  162.7848 C.ar    1  UNL1        0.0030
     10 C         139.2590  145.0208  163.9885 C.ar    1  UNL1        0.0295
     11 C         138.0933  144.0800  164.0685 C.ar    1  UNL1        0.1406
     12 F         137.1985  144.0952  165.2722 F       1  UNL1       -0.2042
     13 C         137.8226  143.1241  162.9447 C.ar    1  UNL1        0.0362
     14 C         138.7175  143.1089  161.7409 C.ar    1  UNL1        0.0372
     15 BR        138.4468  142.1530  160.6171 Br      1  UNL1       -0.0491
     16 C         140.9181  145.5779  156.8037 C.ar    1  UNL1        0.1931
     17 N         139.8633  146.6415  156.7256 N.ar    1  UNL1       -0.2297
     18 C         139.8226  147.1514  155.3154 C.ar    1  UNL1        0.1067
     19 C         140.8523  146.4028  154.5220 C.ar    1  UNL1        0.0577
     20 S         141.5293  145.4304  155.4418 S.2     1  UNL1       -0.0586
     21 C         142.4275  142.4609  161.7033 C.2     1  UNL1        0.3447
     22 O         141.7025  141.1909  162.0371 O.2     1  UNL1       -0.2450
     23 O         143.5298  142.9516  162.5943 O.3     1  UNL1       -0.4455
     24 C         143.5973  145.1442  163.9865 C.3     1  UNL1        0.0513
     25 C         143.8182  144.4205  162.6913 C.3     1  UNL1        0.2089
     26 C         144.2172  142.4307  159.2958 C.3     1  UNL1        0.1405
     27 N         144.7352  141.8104  158.0321 N.3     1  UNL1       -0.2614
     28 C         144.0277  140.6327  157.4300 C.3     1  UNL1        0.1050
     29 C         144.5458  140.0124  156.1662 C.3     1  UNL1        0.1599
     30 O         145.7712  140.5698  155.5047 O.3     1  UNL1       -0.3478
     31 C         146.4786  141.7475  156.1069 C.3     1  UNL1        0.1671
     32 C         145.9607  142.3678  157.3705 C.3     1  UNL1        0.1082
     33 C         147.7040  142.3048  155.4453 C.2     1  UNL1        0.0787
     34 O         149.0465  141.6930  155.7160 O.co2   1  UNL1       -0.5467
     35 O         147.5870  143.4742  154.5131 O.co2   1  UNL1       -0.5467
@<TRIPOS>UNITY_ATOM_ATTR
34 1
charge -1
@<TRIPOS>BOND
     1    24    25    1
     2    25    23    1
     3    23    21    1
     4    21    22    2
     5    21     1    1
     6     1     2    2
     7     2    26    1
     8    26    27    1
     9    27    28    1
    10    28    29    1
    11    29    30    1
    12    30    31    1
    13    31    33    1
    14    33    34   ar
    15    33    35   ar
    16    31    32    1
    17     2     3    1
    18     3     4    1
    19     4    16    1
    20    16    17   ar
    21    17    18   ar
    22    18    19   ar
    23    19    20   ar
    24     4     5    2
    25     5     6    1
    26     6     8    1
    27     8     9   ar
    28     9    10   ar
    29    10    11   ar
    30    11    12    1
    31    11    13   ar
    32    13    14   ar
    33    14    15    1
    34     6     1    1
    35    14     8   ar
    36    32    27    1
    37    20    16   ar
    38     3     7    1
@<TRIPOS>MOLECULE
*****
 35 38 0 0 0
SMALL
GASTEIGER

@<TRIPOS>ATOM
      1 C         139.7516  141.0849  161.1277 C.2     1  UNL1        0.1397
      2 C         139.9010  140.3306  159.8398 C.2     1  UNL1        0.1355
      3 N         139.3984  140.9272  158.5586 N.pl3   1  UNL1       -0.1998
      4 C         138.7464  142.2780  158.5652 C.2     1  UNL1        0.3442
      5 N         138.5970  143.0323  159.8531 N.2     1  UNL1       -0.0580
      6 C         139.0996  142.4357  161.1343 C.3     1  UNL1        0.2692
      7 H         139.4965  140.4321  157.7133 H       1  UNL1        0.2983
      8 C         138.9501  143.1901  162.4222 C.ar    1  UNL1        0.0371
      9 C         137.7294  142.9908  163.2708 C.ar    1  UNL1        0.0030
     10 C         137.5799  143.7451  164.5587 C.ar    1  UNL1        0.0295
     11 C         138.6512  144.6988  164.9980 C.ar    1  UNL1        0.1406
     12 F         138.5017  145.4531  166.2859 F       1  UNL1       -0.2042
     13 C         139.8719  144.8981  164.1494 C.ar    1  UNL1        0.0362
     14 C         140.0214  144.1437  162.8615 C.ar    1  UNL1        0.0372
     15 BR        141.2421  144.3430  162.0129 Br      1  UNL1       -0.0491
     16 C         138.2438  142.8745  157.2840 C.ar    1  UNL1        0.1931
     17 N         136.9621  142.5207  156.5898 N.ar    1  UNL1       -0.2297
     18 C         136.8609  143.3571  155.3487 C.ar    1  UNL1        0.1067
     19 C         138.0800  144.2279  155.2759 C.ar    1  UNL1        0.0577
     20 S         138.9348  143.9296  156.4720 S.2     1  UNL1       -0.0586
     21 C         140.2542  140.4884  162.4089 C.2     1  UNL1        0.3447
     22 O         141.6965  140.6398  162.7917 O.2     1  UNL1       -0.2450
     23 O         139.3144  139.7404  163.3074 O.3     1  UNL1       -0.4455
     24 C         138.1562  139.6922  165.6325 C.3     1  UNL1        0.0513
     25 C         139.3722  139.9470  164.7919 C.3     1  UNL1        0.2089
     26 C         140.5530  138.9797  159.8331 C.3     1  UNL1        0.1405
     27 N         141.0339  138.3854  158.5426 N.3     1  UNL1       -0.2614
     28 C         142.5048  138.2628  158.2753 C.3     1  UNL1        0.1050
     29 C         142.9856  137.6684  156.9847 C.3     1  UNL1        0.1599
     30 O         141.9955  137.1967  155.9614 O.3     1  UNL1       -0.3478
     31 C         140.5246  137.3192  156.2287 C.3     1  UNL1        0.1671
     32 C         140.0438  137.9136  157.5192 C.3     1  UNL1        0.1082
     33 C         139.5345  136.8475  155.2054 C.2     1  UNL1        0.0787
     34 O         140.0116  136.1518  153.9651 O.co2   1  UNL1       -0.5467
     35 O         138.0672  137.0714  155.4224 O.co2   1  UNL1       -0.5467
@<TRIPOS>UNITY_ATOM_ATTR
34 1
charge -1
@<TRIPOS>BOND
     1    24    25    1
     2    25    23    1
     3    23    21    1
     4    21    22    2
     5    21     1    1
     6     1     2    2
     7     2    26    1
     8    26    27    1
     9    27    28    1
    10    28    29    1
    11    29    30    1
    12    30    31    1
    13    31    33    1
    14    33    34   ar
    15    33    35   ar
    16    31    32    1
    17     2     3    1
    18     3     4    1
    19     4    16    1
    20    16    17   ar
    21    17    18   ar
    22    18    19   ar
    23    19    20   ar
    24     4     5    2
    25     5     6    1
    26     6     8    1
    27     8     9   ar
    28     9    10   ar
    29    10    11   ar
    30    11    12    1
    31    11    13   ar
    32    13    14   ar
    33    14    15    1
    34     6     1    1
    35    14     8   ar
    36    32    27    1
    37    20    16   ar
    38     3     7    1
@<TRIPOS>MOLECULE
*****
 35 38 0 0 0
SMALL
GASTEIGER

@<TRIPOS>ATOM
      1 C         141.6594  139.9338  164.2900 C.2     1  UNL1        0.1397
      2 C         141.9231  140.1299  162.8265 C.2     1  UNL1        0.1355
      3 N         141.5607  141.4272  162.1663 N.pl3   1  UNL1       -0.1998
      4 C         140.9345  142.5283  162.9697 C.2     1  UNL1        0.3442
      5 N         140.6708  142.3322  164.4332 N.2     1  UNL1       -0.0580
      6 C         141.0332  141.0349  165.0934 C.3     1  UNL1        0.2692
      7 H         141.7338  141.5559  161.2058 H       1  UNL1        0.2983
      8 C         140.7695  140.8388  166.5570 C.ar    1  UNL1        0.0371
      9 C         139.5142  140.1522  167.0074 C.ar    1  UNL1        0.0030
     10 C         139.2504  139.9561  168.4709 C.ar    1  UNL1        0.0295
     11 C         140.2419  140.4465  169.4841 C.ar    1  UNL1        0.1406
     12 F         139.9781  140.2504  170.9476 F       1  UNL1       -0.2042
     13 C         141.4972  141.1331  169.0336 C.ar    1  UNL1        0.0362
     14 C         141.7610  141.3292  167.5700 C.ar    1  UNL1        0.0372
     15 BR        143.0162  142.0158  167.1196 Br      1  UNL1       -0.0491
     16 C         140.5721  143.8256  162.3096 C.ar    1  UNL1        0.1931
     17 N         140.9290  144.2329  160.9108 N.ar    1  UNL1       -0.2297
     18 C         140.3666  145.6024  160.6690 C.ar    1  UNL1        0.1067
     19 C         139.6622  146.0414  161.9184 C.ar    1  UNL1        0.0577
     20 S         139.7892  144.9432  162.9323 S.2     1  UNL1       -0.0586
     21 C         142.0218  138.6365  164.9501 C.2     1  UNL1        0.3447
     22 O         143.2573  138.5448  165.7958 O.2     1  UNL1       -0.2450
     23 O         141.1487  137.4310  164.7646 O.3     1  UNL1       -0.4455
     24 C         139.1030  137.6386  163.1765 C.3     1  UNL1        0.0513
     25 C         139.6716  137.5984  164.5640 C.3     1  UNL1        0.2089
     26 C         142.5493  139.0288  162.0230 C.3     1  UNL1        0.1405
     27 N         142.6675  139.1611  160.5336 N.3     1  UNL1       -0.2614
     28 C         143.7396  140.0262  159.9402 C.3     1  UNL1        0.1050
     29 C         143.8577  140.1585  158.4506 C.3     1  UNL1        0.1599
     30 O         142.9038  139.4257  157.5546 O.3     1  UNL1       -0.3478
     31 C         141.8317  138.5606  158.1480 C.3     1  UNL1        0.1671
     32 C         141.7135  138.4283  159.6374 C.3     1  UNL1        0.1082
     33 C         140.8778  137.8277  157.2519 C.2     1  UNL1        0.0787
     34 O         139.4013  137.9047  157.5053 O.co2   1  UNL1       -0.5467
     35 O         141.4003  137.0179  156.1025 O.co2   1  UNL1       -0.5467
@<TRIPOS>UNITY_ATOM_ATTR
34 1
charge -1
@<TRIPOS>BOND
     1    24    25    1
     2    25    23    1
     3    23    21    1
     4    21    22    2
     5    21     1    1
     6     1     2    2
     7     2    26    1
     8    26    27    1
     9    27    28    1
    10    28    29    1
    11    29    30    1
    12    30    31    1
    13    31    33    1
    14    33    34   ar
    15    33    35   ar
    16    31    32    1
    17     2     3    1
    18     3     4    1
    19     4    16    1
    20    16    17   ar
    21    17    18   ar
    22    18    19   ar
    23    19    20   ar
    24     4     5    2
    25     5     6    1
    26     6     8    1
    27     8     9   ar
    28     9    10   ar
    29    10    11   ar
    30    11    12    1
    31    11    13   ar
    32    13    14   ar
    33    14    15    1
    34     6     1    1
    35    14     8   ar
    36    32    27    1
    37    20    16   ar
    38     3     7    1
@<TRIPOS>MOLECULE
*****
 35 38 0 0 0
SMALL
GASTEIGER

@<TRIPOS>ATOM
      1 C         140.2948  141.4443  160.9756 C.2     1  UNL1        0.1397
      2 C         140.5652  140.7784  159.6590 C.2     1  UNL1        0.1355
      3 N         139.9908  141.3508  158.3971 N.pl3   1  UNL1       -0.1998
      4 C         139.1459  142.5890  158.4518 C.2     1  UNL1        0.3442
      5 N         138.8755  143.2549  159.7683 N.2     1  UNL1       -0.0580
      6 C         139.4500  142.6825  161.0303 C.3     1  UNL1        0.2692
      7 H         140.1682  140.9137  157.5329 H       1  UNL1        0.2983
      8 C         139.1796  143.3485  162.3469 C.ar    1  UNL1        0.0371
      9 C         137.9435  143.0018  163.1228 C.ar    1  UNL1        0.0030
     10 C         137.6731  143.6677  164.4394 C.ar    1  UNL1        0.0295
     11 C         138.6387  144.6803  164.9801 C.ar    1  UNL1        0.1406
     12 F         138.3683  145.3462  166.2967 F       1  UNL1       -0.2042
     13 C         139.8748  145.0269  164.2042 C.ar    1  UNL1        0.0362
     14 C         140.1452  144.3610  162.8876 C.ar    1  UNL1        0.0372
     15 BR        141.3813  144.7076  162.1117 Br      1  UNL1       -0.0491
     16 C         138.5715  143.1613  157.1898 C.ar    1  UNL1        0.1931
     17 N         139.1341  144.3103  156.4068 N.ar    1  UNL1       -0.2297
     18 C         138.2439  144.5443  155.2224 C.ar    1  UNL1        0.1067
     19 C         137.1310  143.5399  155.2735 C.ar    1  UNL1        0.0577
     20 S         137.3335  142.6852  156.4894 S.2     1  UNL1       -0.0586
     21 C         140.8693  140.8720  162.2375 C.2     1  UNL1        0.3447
     22 O         142.3089  141.1130  162.5830 O.2     1  UNL1       -0.2450
     23 O         140.0042  140.0586  163.1539 O.3     1  UNL1       -0.4455
     24 C         138.9855  137.9963  161.9459 C.3     1  UNL1        0.0513
     25 C         138.8113  139.3304  162.6091 C.3     1  UNL1        0.2089
     26 C         141.4101  139.5402  159.6043 C.3     1  UNL1        0.1405
     27 N         141.3337  138.6322  158.4128 N.3     1  UNL1       -0.2614
     28 C         139.9986  138.2437  157.8502 C.3     1  UNL1        0.1050
     29 C         139.9222  137.3356  156.6587 C.3     1  UNL1        0.1599
     30 O         141.1810  136.8161  156.0298 O.3     1  UNL1       -0.3478
     31 C         142.5161  137.2046  156.5923 C.3     1  UNL1        0.1671
     32 C         142.5925  138.1126  157.7838 C.3     1  UNL1        0.1082
     33 C         143.7749  136.6851  155.9634 C.2     1  UNL1        0.0787
     34 O         144.8951  137.6280  155.6378 O.co2   1  UNL1       -0.5467
     35 O         143.9135  135.2226  155.6601 O.co2   1  UNL1       -0.5467
@<TRIPOS>UNITY_ATOM_ATTR
34 1
charge -1
@<TRIPOS>BOND
     1    24    25    1
     2    25    23    1
     3    23    21    1
     4    21    22    2
     5    21     1    1
     6     1     2    2
     7     2    26    1
     8    26    27    1
     9    27    28    1
    10    28    29    1
    11    29    30    1
    12    30    31    1
    13    31    33    1
    14    33    34   ar
    15    33    35   ar
    16    31    32    1
    17     2     3    1
    18     3     4    1
    19     4    16    1
    20    16    17   ar
    21    17    18   ar
    22    18    19   ar
    23    19    20   ar
    24     4     5    2
    25     5     6    1
    26     6     8    1
    27     8     9   ar
    28     9    10   ar
    29    10    11   ar
    30    11    12    1
    31    11    13   ar
    32    13    14   ar
    33    14    15    1
    34     6     1    1
    35    14     8   ar
    36    32    27    1
    37    20    16   ar
    38     3     7    1
@<TRIPOS>MOLECULE
*****
 35 38 0 0 0
SMALL
GASTEIGER

@<TRIPOS>ATOM
      1 C         140.5605  141.2640  161.1253 C.2     1  UNL1        0.1397
      2 C         140.8097  140.4453  159.8935 C.2     1  UNL1        0.1355
      3 N         139.8769  140.5479  158.7233 N.pl3   1  UNL1       -0.1998
      4 C         138.6948  141.4691  158.7850 C.2     1  UNL1        0.3442
      5 N         138.4455  142.2878  160.0169 N.2     1  UNL1       -0.0580
      6 C         139.3784  142.1852  161.1871 C.3     1  UNL1        0.2692
      7 H         140.0405  140.0105  157.9148 H       1  UNL1        0.2983
      8 C         139.1290  143.0040  162.4190 C.ar    1  UNL1        0.0371
      9 C         139.8419  144.3101  162.6084 C.ar    1  UNL1        0.0030
     10 C         139.5926  145.1289  163.8402 C.ar    1  UNL1        0.0295
     11 C         138.6304  144.6415  164.8827 C.ar    1  UNL1        0.1406
     12 F         138.3811  145.4603  166.1146 F       1  UNL1       -0.2042
     13 C         137.9176  143.3354  164.6933 C.ar    1  UNL1        0.0362
     14 C         138.1669  142.5166  163.4614 C.ar    1  UNL1        0.0372
     15 BR        137.4541  141.2105  163.2720 Br      1  UNL1       -0.0491
     16 C         137.7619  141.5717  157.6149 C.ar    1  UNL1        0.1931
     17 N         136.7910  140.5199  157.1664 N.ar    1  UNL1       -0.2297
     18 C         136.0652  141.0422  155.9621 C.ar    1  UNL1        0.1067
     19 C         136.5876  142.4168  155.6662 C.ar    1  UNL1        0.0577
     20 S         137.6362  142.7440  156.6876 S.2     1  UNL1       -0.0586
     21 C         141.4933  141.1614  162.2955 C.2     1  UNL1        0.3447
     22 O         142.7981  141.9012  162.2816 O.2     1  UNL1       -0.2450
     23 O         141.1214  140.3191  163.4796 O.3     1  UNL1       -0.4455
     24 C         141.3127  142.0044  165.4477 C.3     1  UNL1        0.0513
     25 C         141.6391  140.6711  164.8427 C.3     1  UNL1        0.2089
     26 C         141.9919  139.5240  159.8317 C.3     1  UNL1        0.1405
     27 N         142.8117  139.4388  158.5785 N.3     1  UNL1       -0.2614
     28 C         142.6009  138.3045  157.6200 C.3     1  UNL1        0.1050
     29 C         143.4208  138.2194  156.3667 C.3     1  UNL1        0.1599
     30 O         144.4515  139.2686  156.0720 O.3     1  UNL1       -0.3478
     31 C         144.6623  140.4029  157.0306 C.3     1  UNL1        0.1671
     32 C         143.8425  140.4881  158.2838 C.3     1  UNL1        0.1082
     33 C         145.6930  141.4521  156.7359 C.2     1  UNL1        0.0787
     34 O         146.4845  141.3894  155.4633 O.co2   1  UNL1       -0.5467
     35 O         145.9322  142.5640  157.7140 O.co2   1  UNL1       -0.5467
@<TRIPOS>UNITY_ATOM_ATTR
34 1
charge -1
@<TRIPOS>BOND
     1    24    25    1
     2    25    23    1
     3    23    21    1
     4    21    22    2
     5    21     1    1
     6     1     2    2
     7     2    26    1
     8    26    27    1
     9    27    28    1
    10    28    29    1
    11    29    30    1
    12    30    31    1
    13    31    33    1
    14    33    34   ar
    15    33    35   ar
    16    31    32    1
    17     2     3    1
    18     3     4    1
    19     4    16    1
    20    16    17   ar
    21    17    18   ar
    22    18    19   ar
    23    19    20   ar
    24     4     5    2
    25     5     6    1
    26     6     8    1
    27     8     9   ar
    28     9    10   ar
    29    10    11   ar
    30    11    12    1
    31    11    13   ar
    32    13    14   ar
    33    14    15    1
    34     6     1    1
    35    14     8   ar
    36    32    27    1
    37    20    16   ar
    38     3     7    1
@<TRIPOS>MOLECULE
*****
 35 38 0 0 0
SMALL
GASTEIGER

@<TRIPOS>ATOM
      1 C         141.9810  143.5538  159.9217 C.2     1  UNL1        0.1397
      2 C         142.7985  143.6405  158.6671 C.2     1  UNL1        0.1355
      3 N         142.3102  144.4589  157.5087 N.pl3   1  UNL1       -0.1998
      4 C         141.0043  145.1906  157.6050 C.2     1  UNL1        0.3442
      5 N         140.1868  145.1039  158.8596 N.2     1  UNL1       -0.0580
      6 C         140.6751  144.2855  160.0179 C.3     1  UNL1        0.2692
      7 H         142.8468  144.5157  156.6853 H       1  UNL1        0.2983
      8 C         139.8575  144.1989  161.2726 C.ar    1  UNL1        0.0371
      9 C         140.1086  145.1570  162.3991 C.ar    1  UNL1        0.0030
     10 C         139.2911  145.0704  163.6537 C.ar    1  UNL1        0.0295
     11 C         138.2223  144.0257  163.7818 C.ar    1  UNL1        0.1406
     12 F         137.4048  143.9391  165.0364 F       1  UNL1       -0.2042
     13 C         137.9711  143.0676  162.6553 C.ar    1  UNL1        0.0362
     14 C         138.7888  143.1542  161.4007 C.ar    1  UNL1        0.0372
     15 BR        138.5376  142.1961  160.2742 Br      1  UNL1       -0.0491
     16 C         140.5160  146.0089  156.4466 C.ar    1  UNL1        0.1931
     17 N         139.4126  147.0242  156.4873 N.ar    1  UNL1       -0.2297
     18 C         139.2600  147.5984  155.1100 C.ar    1  UNL1        0.1067
     19 C         140.2691  146.9381  154.2180 C.ar    1  UNL1        0.0577
     20 S         141.0454  145.9557  155.0441 S.2     1  UNL1       -0.0586
     21 C         142.4693  142.7355  161.0801 C.2     1  UNL1        0.3447
     22 O         141.8884  141.3765  161.3361 O.2     1  UNL1       -0.2450
     23 O         143.5385  143.2762  161.9825 O.3     1  UNL1       -0.4455
     24 C         143.4860  144.9088  164.0029 C.3     1  UNL1        0.0513
     25 C         143.2352  143.5469  163.4264 C.3     1  UNL1        0.2089
     26 C         144.1044  142.9088  158.5709 C.3     1  UNL1        0.1405
     27 N         144.1885  141.6222  157.8044 N.3     1  UNL1       -0.2614
     28 C         145.1908  141.4721  156.6985 C.3     1  UNL1        0.1050
     29 C         145.2749  140.1854  155.9320 C.3     1  UNL1        0.1599
     30 O         144.3567  139.0489  156.2714 O.3     1  UNL1       -0.3478
     31 C         143.3544  139.1990  157.3772 C.3     1  UNL1        0.1671
     32 C         143.2703  140.4856  158.1437 C.3     1  UNL1        0.1082
     33 C         142.4362  138.0625  157.7166 C.2     1  UNL1        0.0787
     34 O         142.8085  136.6592  157.3394 O.co2   1  UNL1       -0.5467
     35 O         141.1457  138.3292  158.4332 O.co2   1  UNL1       -0.5467
@<TRIPOS>UNITY_ATOM_ATTR
34 1
charge -1
@<TRIPOS>BOND
     1    24    25    1
     2    25    23    1
     3    23    21    1
     4    21    22    2
     5    21     1    1
     6     1     2    2
     7     2    26    1
     8    26    27    1
     9    27    28    1
    10    28    29    1
    11    29    30    1
    12    30    31    1
    13    31    33    1
    14    33    34   ar
    15    33    35   ar
    16    31    32    1
    17     2     3    1
    18     3     4    1
    19     4    16    1
    20    16    17   ar
    21    17    18   ar
    22    18    19   ar
    23    19    20   ar
    24     4     5    2
    25     5     6    1
    26     6     8    1
    27     8     9   ar
    28     9    10   ar
    29    10    11   ar
    30    11    12    1
    31    11    13   ar
    32    13    14   ar
    33    14    15    1
    34     6     1    1
    35    14     8   ar
    36    32    27    1
    37    20    16   ar
    38     3     7    1
