@<TRIPOS>MOLECULE
*****
 34 37 0 0 0
SMALL
GASTEIGER

@<TRIPOS>ATOM
      1 C         142.1331  140.0245  165.2552 C.3     1  UNL1        0.1518
      2 N         143.4600  140.4409  164.6932 N.2     1  UNL1       -0.2172
      3 C         144.0642  140.0921  163.3652 C.2     1  UNL1        0.2843
      4 N         143.4905  139.2410  162.2713 N.pl3   1  UNL1       -0.2584
      5 C         144.3500  139.0814  161.0524 C.3     1  UNL1        0.1169
      6 C         142.1711  138.5285  162.2353 C.3     1  UNL1        0.1216
      7 C         141.0994  138.4909  163.2841 C.ar    1  UNL1       -0.0041
      8 C         139.9325  137.6566  162.8457 C.ar    1  UNL1       -0.0029
      9 C         138.7487  137.4882  163.7513 C.ar    1  UNL1       -0.0003
     10 C         138.7317  138.1540  165.0953 C.ar    1  UNL1       -0.0003
     11 C         139.8986  138.9883  165.5337 C.ar    1  UNL1       -0.0023
     12 C         141.0825  139.1568  164.6281 C.ar    1  UNL1        0.0018
     13 C         141.1775  141.5855  169.3662 C.ar    1  UNL1        0.0252
     14 C         141.9115  140.2869  169.2090 C.ar    1  UNL1        0.0059
     15 C         142.2300  139.7665  167.8387 C.ar    1  UNL1       -0.0016
     16 C         141.8145  140.5448  166.6255 C.ar    1  UNL1        0.0041
     17 C         141.0805  141.8435  166.7828 C.ar    1  UNL1       -0.0016
     18 C         140.7620  142.3638  168.1532 C.ar    1  UNL1        0.0059
     19 C         139.6860  143.0189  170.9380 C.3     1  UNL1        0.0742
     20 S         140.8589  142.1058  170.7365 S.3     1  UNL1       -0.1127
     21 O         145.4214  140.6711  163.0955 O.2     1  UNL1       -0.4449
     22 C         145.5522  142.0917  162.6324 C.3     1  UNL1        0.2350
     23 C         144.3655  143.0080  162.6787 C.ar    1  UNL1        0.0213
     24 C         144.1312  143.8716  163.8826 C.ar    1  UNL1        0.0006
     25 C         142.9445  144.7879  163.9289 C.ar    1  UNL1        0.0156
     26 C         141.9921  144.8406  162.7712 C.ar    1  UNL1        0.0644
     27 C         142.2264  143.9770  161.5674 C.ar    1  UNL1        0.0156
     28 C         143.4131  143.0607  161.5211 C.ar    1  UNL1        0.0006
     29 N         140.8053  145.7568  162.8175 N.pl3   1  UNL1       -0.2187
     30 H         140.9368  146.7325  162.8274 H       1  UNL1        0.1734
     31 S         139.4183  145.1866  162.8487 S.O2    1  UNL1        0.0558
     32 C         138.0313  144.6163  162.8799 C.3     1  UNL1        0.1996
     33 O         139.6460  144.7093  164.2524 O.2     1  UNL1       -0.1544
     34 O         139.1905  145.6638  161.4451 O.2     1  UNL1       -0.1544
@<TRIPOS>BOND
     1    19    20    1
     2    20    13    1
     3    13    14   ar
     4    14    15   ar
     5    15    16   ar
     6     1    16    1
     7     1     2    1
     8     2     3    2
     9     3    21    1
    10    21    22    1
    11    22    23    1
    12    23    24   ar
    13    24    25   ar
    14    25    26   ar
    15    26    29    1
    16    29    31    1
    17    31    32    1
    18    31    33    2
    19    31    34    2
    20    26    27   ar
    21    27    28   ar
    22     3     4    1
    23     4     5    1
    24     4     6    1
    25     6     7    1
    26     7     8   ar
    27     8     9   ar
    28     9    10   ar
    29    10    11   ar
    30    11    12   ar
    31    16    17   ar
    32    17    18   ar
    33    18    13   ar
    34    12     1    1
    35    28    23   ar
    36    12     7   ar
    37    29    30    1
@<TRIPOS>MOLECULE
*****
 34 37 0 0 0
SMALL
GASTEIGER

@<TRIPOS>ATOM
      1 C         139.7906  140.9584  165.3919 C.3     1  UNL1        0.1518
      2 N         139.8563  139.4925  165.0808 N.2     1  UNL1       -0.2172
      3 C         139.1915  138.7427  163.9645 C.2     1  UNL1        0.2843
      4 N         138.2970  139.2735  162.8838 N.pl3   1  UNL1       -0.2584
      5 C         137.7856  138.2584  161.9051 C.3     1  UNL1        0.1169
      6 C         137.8463  140.6854  162.6524 C.3     1  UNL1        0.1216
      7 C         138.1787  141.9150  163.4445 C.ar    1  UNL1       -0.0041
      8 C         137.5167  143.1324  162.8704 C.ar    1  UNL1       -0.0029
      9 C         137.7200  144.4712  163.5154 C.ar    1  UNL1       -0.0003
     10 C         138.5853  144.5927  164.7346 C.ar    1  UNL1       -0.0003
     11 C         139.2473  143.3754  165.3088 C.ar    1  UNL1       -0.0023
     12 C         139.0440  142.0365  164.6637 C.ar    1  UNL1        0.0018
     13 C         142.1446  142.2990  168.9851 C.ar    1  UNL1        0.0252
     14 C         140.7330  141.8195  169.1497 C.ar    1  UNL1        0.0059
     15 C         139.9482  141.3726  167.9520 C.ar    1  UNL1       -0.0016
     16 C         140.5753  141.4052  166.5896 C.ar    1  UNL1        0.0041
     17 C         141.9870  141.8848  166.4251 C.ar    1  UNL1       -0.0016
     18 C         142.7717  142.3316  167.6229 C.ar    1  UNL1        0.0059
     19 C         144.4274  142.6697  170.1689 C.3     1  UNL1        0.0742
     20 S         142.9294  142.7459  170.1828 S.3     1  UNL1       -0.1127
     21 O         139.4564  137.2668  163.9236 O.2     1  UNL1       -0.4449
     22 C         140.8664  136.7594  163.8566 C.3     1  UNL1        0.2350
     23 C         142.0057  137.7259  163.7234 C.ar    1  UNL1        0.0213
     24 C         142.4124  138.2236  162.3680 C.ar    1  UNL1        0.0006
     25 C         143.5518  139.1900  162.2347 C.ar    1  UNL1        0.0156
     26 C         144.2844  139.6589  163.4569 C.ar    1  UNL1        0.0644
     27 C         143.8777  139.1612  164.8122 C.ar    1  UNL1        0.0156
     28 C         142.7384  138.1947  164.9454 C.ar    1  UNL1        0.0006
     29 N         145.4238  140.6253  163.3236 N.pl3   1  UNL1       -0.2187
     30 H         146.3514  140.3085  163.4155 H       1  UNL1        0.1734
     31 S         145.1499  142.0746  163.0504 S.O2    1  UNL1        0.0558
     32 C         144.8759  143.5238  162.7771 C.3     1  UNL1        0.1996
     33 O         144.9440  142.3123  164.5170 O.2     1  UNL1       -0.1544
     34 O         145.3557  141.8370  161.5837 O.2     1  UNL1       -0.1544
@<TRIPOS>BOND
     1    19    20    1
     2    20    13    1
     3    13    14   ar
     4    14    15   ar
     5    15    16   ar
     6     1    16    1
     7     1     2    1
     8     2     3    2
     9     3    21    1
    10    21    22    1
    11    22    23    1
    12    23    24   ar
    13    24    25   ar
    14    25    26   ar
    15    26    29    1
    16    29    31    1
    17    31    32    1
    18    31    33    2
    19    31    34    2
    20    26    27   ar
    21    27    28   ar
    22     3     4    1
    23     4     5    1
    24     4     6    1
    25     6     7    1
    26     7     8   ar
    27     8     9   ar
    28     9    10   ar
    29    10    11   ar
    30    11    12   ar
    31    16    17   ar
    32    17    18   ar
    33    18    13   ar
    34    12     1    1
    35    28    23   ar
    36    12     7   ar
    37    29    30    1
@<TRIPOS>MOLECULE
*****
 34 37 0 0 0
SMALL
GASTEIGER

@<TRIPOS>ATOM
      1 C         142.0488  142.8386  165.1406 C.3     1  UNL1        0.1518
      2 N         140.7931  143.6399  164.9646 N.2     1  UNL1       -0.2172
      3 C         140.3942  144.5119  163.8110 C.2     1  UNL1        0.2843
      4 N         141.1523  144.7978  162.5487 N.pl3   1  UNL1       -0.2584
      5 C         140.4768  145.7212  161.5787 C.3     1  UNL1        0.1169
      6 C         142.4968  144.2824  162.1282 C.3     1  UNL1        0.1216
      7 C         143.4151  143.3538  162.8661 C.ar    1  UNL1       -0.0041
      8 C         144.6696  143.0902  162.0872 C.ar    1  UNL1       -0.0029
      9 C         145.7248  142.1842  162.6490 C.ar    1  UNL1       -0.0003
     10 C         145.5254  141.5416  163.9896 C.ar    1  UNL1       -0.0003
     11 C         144.2709  141.8051  164.7685 C.ar    1  UNL1       -0.0023
     12 C         143.2157  142.7112  164.2067 C.ar    1  UNL1        0.0018
     13 C         142.3560  140.5084  168.9781 C.ar    1  UNL1        0.0252
     14 C         141.4561  140.0275  167.8787 C.ar    1  UNL1        0.0059
     15 C         141.3536  140.8042  166.5995 C.ar    1  UNL1       -0.0016
     16 C         142.1512  142.0619  166.4198 C.ar    1  UNL1        0.0041
     17 C         143.0512  142.5428  167.5193 C.ar    1  UNL1       -0.0016
     18 C         143.1536  141.7660  168.7984 C.ar    1  UNL1        0.0059
     19 C         142.8857  138.2941  170.2295 C.3     1  UNL1        0.0742
     20 S         142.4584  139.7317  170.2573 S.3     1  UNL1       -0.1127
     21 O         139.0606  145.1872  163.9364 O.2     1  UNL1       -0.4449
     22 C         137.7999  144.4037  163.7202 C.3     1  UNL1        0.2350
     23 C         137.8704  142.9319  163.4393 C.ar    1  UNL1        0.0213
     24 C         137.8817  142.4384  162.0228 C.ar    1  UNL1        0.0006
     25 C         137.9522  140.9666  161.7420 C.ar    1  UNL1        0.0156
     26 C         138.0112  139.9884  162.8776 C.ar    1  UNL1        0.0644
     27 C         137.9998  140.4819  164.2940 C.ar    1  UNL1        0.0156
     28 C         137.9294  141.9537  164.5749 C.ar    1  UNL1        0.0006
     29 N         138.0816  138.5166  162.5968 N.pl3   1  UNL1       -0.2187
     30 H         137.2923  138.0440  162.2462 H       1  UNL1        0.1734
     31 S         139.3547  137.7648  162.8501 S.O2    1  UNL1        0.0558
     32 C         140.6277  137.0130  163.1034 C.3     1  UNL1        0.1996
     33 O         138.8881  137.4424  164.2387 O.2     1  UNL1       -0.1544
     34 O         139.8214  138.0871  161.4615 O.2     1  UNL1       -0.1544
@<TRIPOS>BOND
     1    19    20    1
     2    20    13    1
     3    13    14   ar
     4    14    15   ar
     5    15    16   ar
     6     1    16    1
     7     1     2    1
     8     2     3    2
     9     3    21    1
    10    21    22    1
    11    22    23    1
    12    23    24   ar
    13    24    25   ar
    14    25    26   ar
    15    26    29    1
    16    29    31    1
    17    31    32    1
    18    31    33    2
    19    31    34    2
    20    26    27   ar
    21    27    28   ar
    22     3     4    1
    23     4     5    1
    24     4     6    1
    25     6     7    1
    26     7     8   ar
    27     8     9   ar
    28     9    10   ar
    29    10    11   ar
    30    11    12   ar
    31    16    17   ar
    32    17    18   ar
    33    18    13   ar
    34    12     1    1
    35    28    23   ar
    36    12     7   ar
    37    29    30    1
@<TRIPOS>MOLECULE
*****
 34 37 0 0 0
SMALL
GASTEIGER

@<TRIPOS>ATOM
      1 C         142.0742  139.8535  165.4436 C.3     1  UNL1        0.1518
      2 N         143.4349  140.2229  164.9318 N.2     1  UNL1       -0.2172
      3 C         144.0792  139.8445  163.6310 C.2     1  UNL1        0.2843
      4 N         143.5219  139.0035  162.5210 N.pl3   1  UNL1       -0.2584
      5 C         144.4229  138.8069  161.3381 C.3     1  UNL1        0.1169
      6 C         142.1827  138.3330  162.4377 C.3     1  UNL1        0.1216
      7 C         141.0700  138.3379  163.4436 C.ar    1  UNL1       -0.0041
      8 C         139.8950  137.5378  162.9650 C.ar    1  UNL1       -0.0029
      9 C         138.6717  137.4143  163.8242 C.ar    1  UNL1       -0.0003
     10 C         138.6234  138.0910  165.1620 C.ar    1  UNL1       -0.0003
     11 C         139.7984  138.8911  165.6406 C.ar    1  UNL1       -0.0023
     12 C         141.0217  139.0146  164.7814 C.ar    1  UNL1        0.0018
     13 C         141.0086  141.4766  169.5032 C.ar    1  UNL1        0.0252
     14 C         140.5374  142.1820  168.2662 C.ar    1  UNL1        0.0059
     15 C         140.8926  141.6410  166.9130 C.ar    1  UNL1       -0.0016
     16 C         141.7190  140.3945  166.7968 C.ar    1  UNL1        0.0041
     17 C         142.1902  139.6891  168.0340 C.ar    1  UNL1       -0.0016
     18 C         141.8350  140.2301  169.3872 C.ar    1  UNL1        0.0059
     19 C         139.6820  143.1541  170.9784 C.3     1  UNL1        0.0742
     20 S         140.6534  142.0176  170.8564 S.3     1  UNL1       -0.1127
     21 O         145.4638  140.3778  163.4113 O.2     1  UNL1       -0.4449
     22 C         145.6793  141.8502  163.2225 C.3     1  UNL1        0.2350
     23 C         144.5740  142.7063  162.6791 C.ar    1  UNL1        0.0213
     24 C         144.1166  142.5301  161.2613 C.ar    1  UNL1        0.0006
     25 C         143.0113  143.3862  160.7179 C.ar    1  UNL1        0.0156
     26 C         142.3633  144.4186  161.5923 C.ar    1  UNL1        0.0644
     27 C         142.8206  144.5948  163.0099 C.ar    1  UNL1        0.0156
     28 C         143.9259  143.7387  163.5533 C.ar    1  UNL1        0.0006
     29 N         141.2580  145.2748  161.0488 N.pl3   1  UNL1       -0.2187
     30 H         140.9129  146.0286  161.5797 H       1  UNL1        0.1734
     31 S         140.6785  144.9823  159.6965 S.O2    1  UNL1        0.0558
     32 C         140.0990  144.6898  158.3443 C.3     1  UNL1        0.1996
     33 O         139.5765  144.1933  160.3393 O.2     1  UNL1       -0.1544
     34 O         141.7804  145.7712  159.0537 O.2     1  UNL1       -0.1544
@<TRIPOS>BOND
     1    19    20    1
     2    20    13    1
     3    13    14   ar
     4    14    15   ar
     5    15    16   ar
     6     1    16    1
     7     1     2    1
     8     2     3    2
     9     3    21    1
    10    21    22    1
    11    22    23    1
    12    23    24   ar
    13    24    25   ar
    14    25    26   ar
    15    26    29    1
    16    29    31    1
    17    31    32    1
    18    31    33    2
    19    31    34    2
    20    26    27   ar
    21    27    28   ar
    22     3     4    1
    23     4     5    1
    24     4     6    1
    25     6     7    1
    26     7     8   ar
    27     8     9   ar
    28     9    10   ar
    29    10    11   ar
    30    11    12   ar
    31    16    17   ar
    32    17    18   ar
    33    18    13   ar
    34    12     1    1
    35    28    23   ar
    36    12     7   ar
    37    29    30    1
@<TRIPOS>MOLECULE
*****
 34 37 0 0 0
SMALL
GASTEIGER

@<TRIPOS>ATOM
      1 C         142.0837  139.9596  164.9144 C.3     1  UNL1        0.1518
      2 N         141.1165  138.9569  164.3585 N.2     1  UNL1       -0.2172
      3 C         141.1215  138.3010  163.0094 C.2     1  UNL1        0.2843
      4 N         142.0948  138.4859  161.8831 N.pl3   1  UNL1       -0.2584
      5 C         141.8235  137.6775  160.6492 C.3     1  UNL1        0.1169
      6 C         143.3036  139.3724  161.8278 C.3     1  UNL1        0.1216
      7 C         143.8376  140.2929  162.8850 C.ar    1  UNL1       -0.0041
      8 C         145.0755  141.0013  162.4205 C.ar    1  UNL1       -0.0029
      9 C         145.7704  141.9710  163.3296 C.ar    1  UNL1       -0.0003
     10 C         145.2275  142.2323  164.7033 C.ar    1  UNL1       -0.0003
     11 C         143.9896  141.5240  165.1678 C.ar    1  UNL1       -0.0023
     12 C         143.2947  140.5542  164.2586 C.ar    1  UNL1        0.0018
     13 C         141.2408  141.3709  169.1034 C.ar    1  UNL1        0.0252
     14 C         142.1225  140.1789  168.8768 C.ar    1  UNL1        0.0059
     15 C         142.4035  139.7084  167.4805 C.ar    1  UNL1       -0.0016
     16 C         141.8027  140.4300  166.3107 C.ar    1  UNL1        0.0041
     17 C         140.9209  141.6222  166.5374 C.ar    1  UNL1       -0.0016
     18 C         140.6399  142.0926  167.9337 C.ar    1  UNL1        0.0059
     19 C         139.7930  142.7457  170.7657 C.3     1  UNL1        0.0742
     20 S         140.9597  141.8413  170.4997 S.3     1  UNL1       -0.1127
     21 O         140.0055  137.3321  162.7527 O.2     1  UNL1       -0.4449
     22 C         138.6195  137.8387  162.4837 C.3     1  UNL1        0.2350
     23 C         138.3648  139.3140  162.3921 C.ar    1  UNL1        0.0213
     24 C         137.9570  140.0820  163.6144 C.ar    1  UNL1        0.0006
     25 C         137.7023  141.5574  163.5229 C.ar    1  UNL1        0.0156
     26 C         137.8553  142.2648  162.2089 C.ar    1  UNL1        0.0644
     27 C         138.2630  141.4968  160.9867 C.ar    1  UNL1        0.0156
     28 C         138.5178  140.0214  161.0783 C.ar    1  UNL1        0.0006
     29 N         137.6006  143.7402  162.1174 N.pl3   1  UNL1       -0.2187
     30 H         136.7063  144.0710  161.8724 H       1  UNL1        0.1734
     31 S         138.7085  144.7114  162.3990 S.O2    1  UNL1        0.0558
     32 C         139.8163  145.6827  162.6807 C.3     1  UNL1        0.1996
     33 O         139.1149  144.6664  160.9559 O.2     1  UNL1       -0.1544
     34 O         138.3020  144.7565  163.8422 O.2     1  UNL1       -0.1544
@<TRIPOS>BOND
     1    19    20    1
     2    20    13    1
     3    13    14   ar
     4    14    15   ar
     5    15    16   ar
     6     1    16    1
     7     1     2    1
     8     2     3    2
     9     3    21    1
    10    21    22    1
    11    22    23    1
    12    23    24   ar
    13    24    25   ar
    14    25    26   ar
    15    26    29    1
    16    29    31    1
    17    31    32    1
    18    31    33    2
    19    31    34    2
    20    26    27   ar
    21    27    28   ar
    22     3     4    1
    23     4     5    1
    24     4     6    1
    25     6     7    1
    26     7     8   ar
    27     8     9   ar
    28     9    10   ar
    29    10    11   ar
    30    11    12   ar
    31    16    17   ar
    32    17    18   ar
    33    18    13   ar
    34    12     1    1
    35    28    23   ar
    36    12     7   ar
    37    29    30    1
@<TRIPOS>MOLECULE
*****
 34 37 0 0 0
SMALL
GASTEIGER

@<TRIPOS>ATOM
      1 C         139.2450  141.0338  161.6569 C.3     1  UNL1        0.1518
      2 N         139.0125  142.5118  161.5495 N.2     1  UNL1       -0.2172
      3 C         138.5185  143.4597  162.6020 C.2     1  UNL1        0.2843
      4 N         138.1350  143.1638  164.0216 N.pl3   1  UNL1       -0.2584
      5 C         137.6750  144.3403  164.8303 C.3     1  UNL1        0.1169
      6 C         138.1508  141.8468  164.7394 C.3     1  UNL1        0.1216
      7 C         138.5539  140.5004  164.2150 C.ar    1  UNL1       -0.0041
      8 C         138.4207  139.4400  165.2674 C.ar    1  UNL1       -0.0029
      9 C         138.7744  138.0178  164.9480 C.ar    1  UNL1       -0.0003
     10 C         139.2614  137.6560  163.5761 C.ar    1  UNL1       -0.0003
     11 C         139.3946  138.7164  162.5237 C.ar    1  UNL1       -0.0023
     12 C         139.0409  140.1387  162.8431 C.ar    1  UNL1        0.0018
     13 C         140.7542  139.0187  157.9271 C.ar    1  UNL1        0.0252
     14 C         139.2802  139.1996  158.1377 C.ar    1  UNL1        0.0059
     15 C         138.7771  139.8713  159.3810 C.ar    1  UNL1       -0.0016
     16 C         139.7480  140.3621  160.4137 C.ar    1  UNL1        0.0041
     17 C         141.2222  140.1812  160.2030 C.ar    1  UNL1       -0.0016
     18 C         141.7252  139.5095  158.9597 C.ar    1  UNL1        0.0059
     19 C         141.7533  136.9326  156.7439 C.3     1  UNL1        0.0742
     20 S         141.2574  138.3471  156.6838 S.3     1  UNL1       -0.1127
     21 O         138.3912  144.8931  162.1788 O.2     1  UNL1       -0.4449
     22 C         139.6195  145.7379  162.0125 C.3     1  UNL1        0.2350
     23 C         140.9789  145.1256  162.1769 C.ar    1  UNL1        0.0213
     24 C         141.7205  145.2825  163.4713 C.ar    1  UNL1        0.0006
     25 C         143.0799  144.6702  163.6358 C.ar    1  UNL1        0.0156
     26 C         143.6977  143.9009  162.5059 C.ar    1  UNL1        0.0644
     27 C         142.9561  143.7440  161.2116 C.ar    1  UNL1        0.0156
     28 C         141.5966  144.3564  161.0471 C.ar    1  UNL1        0.0006
     29 N         145.0571  143.2886  162.6704 N.pl3   1  UNL1       -0.2187
     30 H         145.8563  143.7741  162.3623 H       1  UNL1        0.1734
     31 S         145.1989  141.9365  163.3042 S.O2    1  UNL1        0.0558
     32 C         145.3407  140.5844  163.9379 C.3     1  UNL1        0.1996
     33 O         145.2176  142.5746  164.6615 O.2     1  UNL1       -0.1544
     34 O         145.1803  141.2983  161.9469 O.2     1  UNL1       -0.1544
@<TRIPOS>BOND
     1    19    20    1
     2    20    13    1
     3    13    14   ar
     4    14    15   ar
     5    15    16   ar
     6     1    16    1
     7     1     2    1
     8     2     3    2
     9     3    21    1
    10    21    22    1
    11    22    23    1
    12    23    24   ar
    13    24    25   ar
    14    25    26   ar
    15    26    29    1
    16    29    31    1
    17    31    32    1
    18    31    33    2
    19    31    34    2
    20    26    27   ar
    21    27    28   ar
    22     3     4    1
    23     4     5    1
    24     4     6    1
    25     6     7    1
    26     7     8   ar
    27     8     9   ar
    28     9    10   ar
    29    10    11   ar
    30    11    12   ar
    31    16    17   ar
    32    17    18   ar
    33    18    13   ar
    34    12     1    1
    35    28    23   ar
    36    12     7   ar
    37    29    30    1
@<TRIPOS>MOLECULE
*****
 34 37 0 0 0
SMALL
GASTEIGER

@<TRIPOS>ATOM
      1 C         141.7133  140.2759  164.8861 C.3     1  UNL1        0.1518
      2 N         142.7045  141.2875  165.3803 N.2     1  UNL1       -0.2172
      3 C         142.7308  142.0049  166.6974 C.2     1  UNL1        0.2843
      4 N         141.7725  141.8878  167.8456 N.pl3   1  UNL1       -0.2584
      5 C         142.0756  142.7478  169.0365 C.3     1  UNL1        0.1169
      6 C         140.5513  141.0244  167.9600 C.3     1  UNL1        0.1216
      7 C         139.9866  140.0649  166.9548 C.ar    1  UNL1       -0.0041
      8 C         138.7455  139.3987  167.4702 C.ar    1  UNL1       -0.0029
      9 C         138.0215  138.3994  166.6175 C.ar    1  UNL1       -0.0003
     10 C         138.5386  138.0662  165.2494 C.ar    1  UNL1       -0.0003
     11 C         139.7798  138.7324  164.7341 C.ar    1  UNL1       -0.0023
     12 C         140.5038  139.7318  165.5868 C.ar    1  UNL1        0.0018
     13 C         142.4684  138.6596  160.7548 C.ar    1  UNL1        0.0252
     14 C         143.0602  137.9716  161.9490 C.ar    1  UNL1        0.0059
     15 C         142.8086  138.5103  163.3261 C.ar    1  UNL1       -0.0016
     16 C         141.9650  139.7372  163.5090 C.ar    1  UNL1        0.0041
     17 C         141.3732  140.4252  162.3147 C.ar    1  UNL1       -0.0016
     18 C         141.6249  139.8865  160.9376 C.ar    1  UNL1        0.0059
     19 C         142.9466  139.0640  158.2333 C.3     1  UNL1        0.0742
     20 S         142.7201  138.1210  159.3777 S.3     1  UNL1       -0.1127
     21 O         143.8654  142.9665  166.8922 O.2     1  UNL1       -0.4449
     22 C         144.6790  143.4150  165.7145 C.3     1  UNL1        0.2350
     23 C         143.9987  143.7813  164.4288 C.ar    1  UNL1        0.0213
     24 C         142.8791  144.7796  164.4306 C.ar    1  UNL1        0.0006
     25 C         142.1988  145.1459  163.1449 C.ar    1  UNL1        0.0156
     26 C         142.6382  144.5139  161.8574 C.ar    1  UNL1        0.0644
     27 C         143.7578  143.5157  161.8556 C.ar    1  UNL1        0.0156
     28 C         144.4380  143.1494  163.1414 C.ar    1  UNL1        0.0006
     29 N         141.9580  144.8802  160.5716 N.pl3   1  UNL1       -0.2187
     30 H         141.7120  145.8169  160.3944 H       1  UNL1        0.1734
     31 S         141.6526  143.8194  159.5560 S.O2    1  UNL1        0.0558
     32 C         141.3472  142.7587  158.5404 C.3     1  UNL1        0.1996
     33 O         140.5448  143.3047  160.4266 O.2     1  UNL1       -0.1544
     34 O         142.7603  144.3341  158.6854 O.2     1  UNL1       -0.1544
@<TRIPOS>BOND
     1    19    20    1
     2    20    13    1
     3    13    14   ar
     4    14    15   ar
     5    15    16   ar
     6     1    16    1
     7     1     2    1
     8     2     3    2
     9     3    21    1
    10    21    22    1
    11    22    23    1
    12    23    24   ar
    13    24    25   ar
    14    25    26   ar
    15    26    29    1
    16    29    31    1
    17    31    32    1
    18    31    33    2
    19    31    34    2
    20    26    27   ar
    21    27    28   ar
    22     3     4    1
    23     4     5    1
    24     4     6    1
    25     6     7    1
    26     7     8   ar
    27     8     9   ar
    28     9    10   ar
    29    10    11   ar
    30    11    12   ar
    31    16    17   ar
    32    17    18   ar
    33    18    13   ar
    34    12     1    1
    35    28    23   ar
    36    12     7   ar
    37    29    30    1
@<TRIPOS>MOLECULE
*****
 34 37 0 0 0
SMALL
GASTEIGER

@<TRIPOS>ATOM
      1 C         141.3246  143.8663  161.7860 C.3     1  UNL1        0.1518
      2 N         142.7959  143.6185  161.9401 N.2     1  UNL1       -0.2172
      3 C         143.5853  143.4294  163.2016 C.2     1  UNL1        0.2843
      4 N         143.0983  143.4413  164.6203 N.pl3   1  UNL1       -0.2584
      5 C         144.1466  143.2199  165.6701 C.3     1  UNL1        0.1169
      6 C         141.7017  143.6453  165.1279 C.3     1  UNL1        0.1216
      7 C         140.4470  143.8878  164.3424 C.ar    1  UNL1       -0.0041
      8 C         139.2572  144.0393  165.2430 C.ar    1  UNL1       -0.0029
      9 C         137.8995  144.2892  164.6564 C.ar    1  UNL1       -0.0003
     10 C         137.7316  144.3875  163.1691 C.ar    1  UNL1       -0.0003
     11 C         138.9215  144.2360  162.2684 C.ar    1  UNL1       -0.0023
     12 C         140.2792  143.9862  162.8550 C.ar    1  UNL1        0.0018
     13 C         139.8517  144.3087  157.5569 C.ar    1  UNL1        0.0252
     14 C         139.8717  142.9569  158.2065 C.ar    1  UNL1        0.0059
     15 C         140.3626  142.8094  159.6162 C.ar    1  UNL1       -0.0016
     16 C         140.8336  144.0138  160.3763 C.ar    1  UNL1        0.0041
     17 C         140.8136  145.3657  159.7266 C.ar    1  UNL1       -0.0016
     18 C         140.3227  145.5131  158.3169 C.ar    1  UNL1        0.0059
     19 C         138.0420  143.8644  155.7466 C.3     1  UNL1        0.0742
     20 S         139.3608  144.4562  156.1472 S.3     1  UNL1       -0.1127
     21 O         145.0561  143.1977  163.0203 O.2     1  UNL1       -0.4449
     22 C         145.5798  141.8029  162.8459 C.3     1  UNL1        0.2350
     23 C         144.6321  140.6402  162.8483 C.ar    1  UNL1        0.0213
     24 C         144.3265  139.9244  164.1307 C.ar    1  UNL1        0.0006
     25 C         143.3788  138.7617  164.1332 C.ar    1  UNL1        0.0156
     26 C         142.7367  138.3148  162.8533 C.ar    1  UNL1        0.0644
     27 C         143.0423  139.0306  161.5711 C.ar    1  UNL1        0.0156
     28 C         143.9900  140.1933  161.5686 C.ar    1  UNL1        0.0006
     29 N         141.7890  137.1521  162.8558 N.pl3   1  UNL1       -0.2187
     30 H         142.1215  136.2457  162.6632 H       1  UNL1        0.1734
     31 S         140.3348  137.3705  163.1519 S.O2    1  UNL1        0.0558
     32 C         138.8806  137.5888  163.4479 C.3     1  UNL1        0.1996
     33 O         140.5962  137.1347  164.6100 O.2     1  UNL1       -0.1544
     34 O         140.0734  137.6063  161.6938 O.2     1  UNL1       -0.1544
@<TRIPOS>BOND
     1    19    20    1
     2    20    13    1
     3    13    14   ar
     4    14    15   ar
     5    15    16   ar
     6     1    16    1
     7     1     2    1
     8     2     3    2
     9     3    21    1
    10    21    22    1
    11    22    23    1
    12    23    24   ar
    13    24    25   ar
    14    25    26   ar
    15    26    29    1
    16    29    31    1
    17    31    32    1
    18    31    33    2
    19    31    34    2
    20    26    27   ar
    21    27    28   ar
    22     3     4    1
    23     4     5    1
    24     4     6    1
    25     6     7    1
    26     7     8   ar
    27     8     9   ar
    28     9    10   ar
    29    10    11   ar
    30    11    12   ar
    31    16    17   ar
    32    17    18   ar
    33    18    13   ar
    34    12     1    1
    35    28    23   ar
    36    12     7   ar
    37    29    30    1
@<TRIPOS>MOLECULE
*****
 34 37 0 0 0
SMALL
GASTEIGER

@<TRIPOS>ATOM
      1 C         142.4295  140.2061  161.1192 C.3     1  UNL1        0.1518
      2 N         141.2875  139.2353  161.1777 N.2     1  UNL1       -0.2172
      3 C         140.9200  138.2892  162.2821 C.2     1  UNL1        0.2843
      4 N         141.6037  138.0801  163.6008 N.pl3   1  UNL1       -0.2584
      5 C         140.9857  137.0493  164.4982 C.3     1  UNL1        0.1169
      6 C         142.8238  138.7656  164.1407 C.3     1  UNL1        0.1216
      7 C         143.6615  139.8295  163.4954 C.ar    1  UNL1       -0.0041
      8 C         144.7983  140.2446  164.3815 C.ar    1  UNL1       -0.0029
      9 C         145.7597  141.3007  163.9230 C.ar    1  UNL1       -0.0003
     10 C         145.5842  141.9418  162.5783 C.ar    1  UNL1       -0.0003
     11 C         144.4474  141.5267  161.6921 C.ar    1  UNL1       -0.0023
     12 C         143.4861  140.4706  162.1507 C.ar    1  UNL1        0.0018
     13 C         142.7250  142.6483  157.3511 C.ar    1  UNL1        0.0252
     14 C         141.8429  143.1063  158.4744 C.ar    1  UNL1        0.0059
     15 C         141.7443  142.2923  159.7304 C.ar    1  UNL1       -0.0016
     16 C         142.5280  141.0202  159.8632 C.ar    1  UNL1        0.0041
     17 C         143.4102  140.5621  158.7398 C.ar    1  UNL1       -0.0016
     18 C         143.5087  141.3762  157.4838 C.ar    1  UNL1        0.0059
     19 C         141.6639  144.3061  155.6553 C.3     1  UNL1        0.0742
     20 S         142.8236  143.4622  156.0950 S.3     1  UNL1       -0.1127
     21 O         139.7087  137.4397  162.0352 O.2     1  UNL1       -0.4449
     22 C         138.3434  138.0610  162.0396 C.3     1  UNL1        0.2350
     23 C         138.1976  139.5507  162.1372 C.ar    1  UNL1        0.0213
     24 C         138.0523  140.2037  163.4798 C.ar    1  UNL1        0.0006
     25 C         137.9065  141.6934  163.5774 C.ar    1  UNL1        0.0156
     26 C         137.9061  142.5301  162.3324 C.ar    1  UNL1        0.0644
     27 C         138.0514  141.8771  160.9899 C.ar    1  UNL1        0.0156
     28 C         138.1972  140.3874  160.8923 C.ar    1  UNL1        0.0006
     29 N         137.7603  144.0198  162.4300 N.pl3   1  UNL1       -0.2187
     30 H         136.8647  144.4285  162.4206 H       1  UNL1        0.1734
     31 S         138.9792  144.8870  162.5420 S.O2    1  UNL1        0.0558
     32 C         140.1980  145.7540  162.6539 C.3     1  UNL1        0.1996
     33 O         138.8224  144.9149  164.0335 O.2     1  UNL1       -0.1544
     34 O         139.1360  144.8590  161.0505 O.2     1  UNL1       -0.1544
@<TRIPOS>BOND
     1    19    20    1
     2    20    13    1
     3    13    14   ar
     4    14    15   ar
     5    15    16   ar
     6     1    16    1
     7     1     2    1
     8     2     3    2
     9     3    21    1
    10    21    22    1
    11    22    23    1
    12    23    24   ar
    13    24    25   ar
    14    25    26   ar
    15    26    29    1
    16    29    31    1
    17    31    32    1
    18    31    33    2
    19    31    34    2
    20    26    27   ar
    21    27    28   ar
    22     3     4    1
    23     4     5    1
    24     4     6    1
    25     6     7    1
    26     7     8   ar
    27     8     9   ar
    28     9    10   ar
    29    10    11   ar
    30    11    12   ar
    31    16    17   ar
    32    17    18   ar
    33    18    13   ar
    34    12     1    1
    35    28    23   ar
    36    12     7   ar
    37    29    30    1
