@<TRIPOS>MOLECULE
*****
 31 35 0 0 0
SMALL
GASTEIGER

@<TRIPOS>ATOM
      1 C         138.1455  139.8508  165.6945 C.3     1  UNL1        0.0285
      2 C         139.0485  140.8558  165.0429 C.3     1  UNL1        0.1321
      3 C         138.6299  141.5238  163.7667 C.3     1  UNL1        0.2279
      4 O         139.5329  142.5288  163.1151 O.3     1  UNL1       -0.4707
      5 C         140.8543  142.8659  163.7396 C.ar    1  UNL1        0.1697
      6 C         141.7573  143.8709  163.0880 C.ar    1  UNL1        0.1124
      7 C         143.0787  144.2080  163.7125 C.ar    1  UNL1        0.1668
      8 F         143.9817  145.2130  163.0609 F       1  UNL1       -0.2019
      9 C         143.4973  143.5400  164.9888 C.ar    1  UNL1        0.0878
     10 CL        144.8188  143.8771  165.6133 Cl      1  UNL1       -0.0798
     11 C         142.5944  142.5350  165.6404 C.ar    1  UNL1        0.0319
     12 C         143.0129  141.8670  166.9165 C.ar    1  UNL1        0.0083
     13 C         142.1100  140.8620  167.5682 C.ar    1  UNL1        0.0702
     14 C         140.7885  140.5249  166.9436 C.ar    1  UNL1        0.2620
     15 O         139.8856  139.5199  167.5953 O.2     1  UNL1       -0.2669
     16 N         140.3699  141.1929  165.6674 N.ar    1  UNL1       -0.2909
     17 C         141.2729  142.1979  165.0158 C.ar    1  UNL1        0.0988
     18 N         141.3388  144.5389  161.8118 N.pl3   1  UNL1       -0.3033
     19 C         140.2179  145.5239  161.6587 C.3     1  UNL1        0.0910
     20 C         140.1539  145.9330  160.2169 C.3     1  UNL1        0.0244
     21 C         141.2353  145.2007  159.4790 C.3     1  UNL1        0.0344
     22 C         141.9676  144.3391  160.4647 C.3     1  UNL1        0.0922
     23 C         141.5323  145.3108  158.0128 C.3     1  UNL1        0.0406
     24 N         142.8899  144.6740  157.9736 N.3     1  UNL1       -0.3231
     25 C         141.3579  145.6419  156.5603 C.3     1  UNL1        0.0156
     26 C         140.2780  145.9858  157.5429 C.3     1  UNL1        0.0156
     27 H         143.1578  144.3860  158.9147 H       1  UNL1        0.1188
     28 H         143.5701  145.3452  157.6169 H       1  UNL1        0.1188
     29 C         142.5285  140.1940  168.8444 C.2     1  UNL1        0.0775
     30 O         143.0703  138.7956  168.8163 O.co2   1  UNL1       -0.5444
     31 O         142.4053  140.9245  170.1487 O.co2   1  UNL1       -0.5444
@<TRIPOS>UNITY_ATOM_ATTR
30 1
charge -1
@<TRIPOS>BOND
     1     2     1    1
     2     2     3    1
     3     3     4    1
     4     4     5    1
     5     5     6   ar
     6     6    18    1
     7    18    19    1
     8    19    20    1
     9    20    21    1
    10    21    23    1
    11    23    24    1
    12    23    25    1
    13    25    26    1
    14    21    22    1
    15     6     7   ar
    16     7     8    1
    17     7     9   ar
    18     9    10    1
    19     9    11   ar
    20    11    12   ar
    21    12    13   ar
    22    13    29    1
    23    29    30   ar
    24    29    31   ar
    25    13    14   ar
    26    14    15    2
    27    14    16   ar
    28    16    17   ar
    29    16     2    1
    30    17     5   ar
    31    22    18    1
    32    17    11   ar
    33    26    23    1
    34    24    27    1
    35    24    28    1
@<TRIPOS>MOLECULE
*****
 31 35 0 0 0
SMALL
GASTEIGER

@<TRIPOS>ATOM
      1 C         137.4151  138.3949  167.4490 C.3     1  UNL1        0.0285
      2 C         138.4828  138.9651  166.5630 C.3     1  UNL1        0.1321
      3 C         138.5180  138.6089  165.1063 C.3     1  UNL1        0.2279
      4 O         139.5856  139.1791  164.2204 O.3     1  UNL1       -0.4707
      5 C         140.6181  140.1056  164.7910 C.ar    1  UNL1        0.1697
      6 C         141.6857  140.6758  163.9050 C.ar    1  UNL1        0.1124
      7 C         142.7181  141.6023  164.4756 C.ar    1  UNL1        0.1668
      8 F         143.7858  142.1725  163.5897 F       1  UNL1       -0.2019
      9 C         142.6830  141.9586  165.9323 C.ar    1  UNL1        0.0878
     10 CL        143.7154  142.8850  166.5030 Cl      1  UNL1       -0.0798
     11 C         141.6153  141.3883  166.8183 C.ar    1  UNL1        0.0319
     12 C         141.5802  141.7446  168.2750 C.ar    1  UNL1        0.0083
     13 C         140.5125  141.1743  169.1610 C.ar    1  UNL1        0.0702
     14 C         139.4801  140.2479  168.5903 C.ar    1  UNL1        0.2620
     15 O         138.4124  139.6776  169.4763 O.2     1  UNL1       -0.2669
     16 N         139.5152  139.8916  167.1336 N.ar    1  UNL1       -0.2909
     17 C         140.5829  140.4618  166.2476 C.ar    1  UNL1        0.0988
     18 N         141.7209  140.3196  162.4484 N.pl3   1  UNL1       -0.3033
     19 C         141.2013  141.1627  161.3217 C.3     1  UNL1        0.0910
     20 C         141.4411  140.4219  160.0396 C.3     1  UNL1        0.0244
     21 C         142.1089  139.1209  160.3738 C.3     1  UNL1        0.0344
     22 C         142.2818  139.0577  161.8626 C.3     1  UNL1        0.0922
     23 C         142.5299  138.0681  159.3919 C.3     1  UNL1        0.0406
     24 N         143.1068  137.0512  160.3316 N.3     1  UNL1       -0.3231
     25 C         142.7505  137.3684  158.0836 C.3     1  UNL1        0.0156
     26 C         142.0992  138.7194  158.1111 C.3     1  UNL1        0.0156
     27 H         143.0288  137.3912  161.2901 H       1  UNL1        0.1188
     28 H         144.0892  136.8971  160.1045 H       1  UNL1        0.1188
     29 C         140.4774  141.5306  170.6177 C.2     1  UNL1        0.0775
     30 O         139.4387  142.4827  171.1320 O.co2   1  UNL1       -0.5444
     31 O         141.4809  140.9348  171.5599 O.co2   1  UNL1       -0.5444
@<TRIPOS>UNITY_ATOM_ATTR
30 1
charge -1
@<TRIPOS>BOND
     1     2     1    1
     2     2     3    1
     3     3     4    1
     4     4     5    1
     5     5     6   ar
     6     6    18    1
     7    18    19    1
     8    19    20    1
     9    20    21    1
    10    21    23    1
    11    23    24    1
    12    23    25    1
    13    25    26    1
    14    21    22    1
    15     6     7   ar
    16     7     8    1
    17     7     9   ar
    18     9    10    1
    19     9    11   ar
    20    11    12   ar
    21    12    13   ar
    22    13    29    1
    23    29    30   ar
    24    29    31   ar
    25    13    14   ar
    26    14    15    2
    27    14    16   ar
    28    16    17   ar
    29    16     2    1
    30    17     5   ar
    31    22    18    1
    32    17    11   ar
    33    26    23    1
    34    24    27    1
    35    24    28    1
@<TRIPOS>MOLECULE
*****
 31 35 0 0 0
SMALL
GASTEIGER

@<TRIPOS>ATOM
      1 C         143.3050  139.0743  166.2913 C.3     1  UNL1        0.0285
      2 C         142.5962  140.1209  165.4838 C.3     1  UNL1        0.1321
      3 C         142.7758  140.1690  163.9954 C.3     1  UNL1        0.2279
      4 O         142.0669  141.2156  163.1878 O.3     1  UNL1       -0.4707
      5 C         141.1785  142.2141  163.8687 C.ar    1  UNL1        0.1697
      6 C         140.4696  143.2607  163.0611 C.ar    1  UNL1        0.1124
      7 C         139.5812  144.2592  163.7420 C.ar    1  UNL1        0.1668
      8 F         138.8723  145.3059  162.9345 F       1  UNL1       -0.2019
      9 C         139.4015  144.2112  165.2305 C.ar    1  UNL1        0.0878
     10 CL        138.5131  145.2097  165.9114 Cl      1  UNL1       -0.0798
     11 C         140.1104  143.1645  166.0380 C.ar    1  UNL1        0.0319
     12 C         139.9308  143.1164  167.5264 C.ar    1  UNL1        0.0083
     13 C         140.6397  142.0698  168.3340 C.ar    1  UNL1        0.0702
     14 C         141.5281  141.0713  167.6531 C.ar    1  UNL1        0.2620
     15 O         142.2370  140.0247  168.4606 O.2     1  UNL1       -0.2669
     16 N         141.7077  141.1194  166.1646 N.ar    1  UNL1       -0.2909
     17 C         140.9989  142.1660  165.3571 C.ar    1  UNL1        0.0988
     18 N         140.6492  143.3089  161.5727 N.pl3   1  UNL1       -0.3033
     19 C         140.1227  142.3070  160.5882 C.3     1  UNL1        0.0910
     20 C         140.5349  142.7462  159.2145 C.3     1  UNL1        0.0244
     21 C         141.3162  144.0196  159.3499 C.3     1  UNL1        0.0344
     22 C         141.3868  144.3673  160.8074 C.3     1  UNL1        0.0922
     23 C         141.9207  144.8069  158.2253 C.3     1  UNL1        0.0406
     24 N         143.2550  144.1295  158.1208 N.3     1  UNL1       -0.3231
     25 C         142.0618  145.8294  157.1371 C.3     1  UNL1        0.0156
     26 C         140.7964  145.7577  157.9393 C.3     1  UNL1        0.0156
     27 H         143.3147  143.3868  158.8175 H       1  UNL1        0.1188
     28 H         143.9960  144.8107  158.2858 H       1  UNL1        0.1188
     29 C         140.4600  142.0217  169.8224 C.2     1  UNL1        0.0775
     30 O         139.3954  141.1514  170.4217 O.co2   1  UNL1       -0.5444
     31 O         141.3451  142.8440  170.7116 O.co2   1  UNL1       -0.5444
@<TRIPOS>UNITY_ATOM_ATTR
30 1
charge -1
@<TRIPOS>BOND
     1     2     1    1
     2     2     3    1
     3     3     4    1
     4     4     5    1
     5     5     6   ar
     6     6    18    1
     7    18    19    1
     8    19    20    1
     9    20    21    1
    10    21    23    1
    11    23    24    1
    12    23    25    1
    13    25    26    1
    14    21    22    1
    15     6     7   ar
    16     7     8    1
    17     7     9   ar
    18     9    10    1
    19     9    11   ar
    20    11    12   ar
    21    12    13   ar
    22    13    29    1
    23    29    30   ar
    24    29    31   ar
    25    13    14   ar
    26    14    15    2
    27    14    16   ar
    28    16    17   ar
    29    16     2    1
    30    17     5   ar
    31    22    18    1
    32    17    11   ar
    33    26    23    1
    34    24    27    1
    35    24    28    1
@<TRIPOS>MOLECULE
*****
 31 35 0 0 0
SMALL
GASTEIGER

@<TRIPOS>ATOM
      1 C         143.6885  142.9109  166.8231 C.3     1  UNL1        0.0285
      2 C         142.8593  141.9359  166.0408 C.3     1  UNL1        0.1321
      3 C         143.1891  141.6536  164.6050 C.3     1  UNL1        0.2279
      4 O         142.3599  140.6787  163.8228 O.3     1  UNL1       -0.4707
      5 C         141.2010  139.9860  164.4763 C.ar    1  UNL1        0.1697
      6 C         140.3718  139.0111  163.6940 C.ar    1  UNL1        0.1124
      7 C         139.2129  138.3184  164.3475 C.ar    1  UNL1        0.1668
      8 F         138.3838  137.3434  163.5652 F       1  UNL1       -0.2019
      9 C         138.8831  138.6007  165.7834 C.ar    1  UNL1        0.0878
     10 CL        137.7242  137.9080  166.4369 Cl      1  UNL1       -0.0798
     11 C         139.7123  139.5756  166.5657 C.ar    1  UNL1        0.0319
     12 C         139.3826  139.8579  168.0014 C.ar    1  UNL1        0.0083
     13 C         140.2117  140.8329  168.7837 C.ar    1  UNL1        0.0702
     14 C         141.3706  141.5255  168.1302 C.ar    1  UNL1        0.2620
     15 O         142.1998  142.5005  168.9125 O.2     1  UNL1       -0.2669
     16 N         141.7004  141.2433  166.6943 N.ar    1  UNL1       -0.2909
     17 C         140.8713  140.2683  165.9121 C.ar    1  UNL1        0.0988
     18 N         140.7016  138.7288  162.2582 N.pl3   1  UNL1       -0.3033
     19 C         141.9636  138.0957  161.7514 C.3     1  UNL1        0.0910
     20 C         141.8692  138.0056  160.2570 C.3     1  UNL1        0.0244
     21 C         140.5489  138.5830  159.8403 C.3     1  UNL1        0.0344
     22 C         139.8273  139.0299  161.0771 C.3     1  UNL1        0.0922
     23 C         140.0397  138.6939  158.4337 C.3     1  UNL1        0.0406
     24 N         138.7483  139.4160  158.6805 N.3     1  UNL1       -0.3231
     25 C         139.9789  138.5541  156.9416 C.3     1  UNL1        0.0156
     26 C         141.1543  138.0104  157.6986 C.3     1  UNL1        0.0156
     27 H         138.6411  139.5890  159.6800 H       1  UNL1        0.1188
     28 H         137.9708  138.8450  158.3490 H       1  UNL1        0.1188
     29 C         139.8819  141.1152  170.2196 C.2     1  UNL1        0.0775
     30 O         139.3995  142.4764  170.6247 O.co2   1  UNL1       -0.5444
     31 O         140.0346  140.0361  171.2503 O.co2   1  UNL1       -0.5444
@<TRIPOS>UNITY_ATOM_ATTR
30 1
charge -1
@<TRIPOS>BOND
     1     2     1    1
     2     2     3    1
     3     3     4    1
     4     4     5    1
     5     5     6   ar
     6     6    18    1
     7    18    19    1
     8    19    20    1
     9    20    21    1
    10    21    23    1
    11    23    24    1
    12    23    25    1
    13    25    26    1
    14    21    22    1
    15     6     7   ar
    16     7     8    1
    17     7     9   ar
    18     9    10    1
    19     9    11   ar
    20    11    12   ar
    21    12    13   ar
    22    13    29    1
    23    29    30   ar
    24    29    31   ar
    25    13    14   ar
    26    14    15    2
    27    14    16   ar
    28    16    17   ar
    29    16     2    1
    30    17     5   ar
    31    22    18    1
    32    17    11   ar
    33    26    23    1
    34    24    27    1
    35    24    28    1
@<TRIPOS>MOLECULE
*****
 31 35 0 0 0
SMALL
GASTEIGER

@<TRIPOS>ATOM
      1 C         143.1431  139.0276  166.3042 C.3     1  UNL1        0.0285
      2 C         142.2944  139.9780  165.5126 C.3     1  UNL1        0.1321
      3 C         142.1804  139.8211  164.0253 C.3     1  UNL1        0.2279
      4 O         141.3317  140.7715  163.2337 O.3     1  UNL1       -0.4707
      5 C         140.5970  141.8787  163.9296 C.ar    1  UNL1        0.1697
      6 C         139.7483  142.8291  163.1380 C.ar    1  UNL1        0.1124
      7 C         139.0137  143.9363  163.8339 C.ar    1  UNL1        0.1668
      8 F         138.1650  144.8867  163.0424 F       1  UNL1       -0.2019
      9 C         139.1277  144.0932  165.3213 C.ar    1  UNL1        0.0878
     10 CL        138.3930  145.2005  166.0172 Cl      1  UNL1       -0.0798
     11 C         139.9764  143.1429  166.1129 C.ar    1  UNL1        0.0319
     12 C         140.0904  143.2997  167.6003 C.ar    1  UNL1        0.0083
     13 C         140.9391  142.3494  168.3918 C.ar    1  UNL1        0.0702
     14 C         141.6738  141.2421  167.6959 C.ar    1  UNL1        0.2620
     15 O         142.5225  140.2918  168.4875 O.2     1  UNL1       -0.2669
     16 N         141.5598  141.0852  166.2085 N.ar    1  UNL1       -0.2909
     17 C         140.7111  142.0356  165.4169 C.ar    1  UNL1        0.0988
     18 N         139.6343  142.6722  161.6507 N.pl3   1  UNL1       -0.3033
     19 C         140.5322  143.3005  160.6264 C.3     1  UNL1        0.0910
     20 C         140.0552  142.8761  159.2690 C.3     1  UNL1        0.0244
     21 C         138.8625  141.9856  159.4543 C.3     1  UNL1        0.0344
     22 C         138.6023  141.8596  160.9263 C.3     1  UNL1        0.0922
     23 C         138.0692  141.3352  158.3600 C.3     1  UNL1        0.0406
     24 N         138.0172  139.9280  158.8768 N.3     1  UNL1       -0.3231
     25 C         137.2939  141.1735  157.0861 C.3     1  UNL1        0.0156
     26 C         137.8456  142.5165  157.4631 C.3     1  UNL1        0.0156
     27 H         138.5161  139.8734  159.7649 H       1  UNL1        0.1188
     28 H         138.4554  139.3014  158.2017 H       1  UNL1        0.1188
     29 C         141.0531  142.5063  169.8792 C.2     1  UNL1        0.0775
     30 O         142.1124  143.3950  170.4606 O.co2   1  UNL1       -0.5444
     31 O         140.1078  141.7745  170.7852 O.co2   1  UNL1       -0.5444
@<TRIPOS>UNITY_ATOM_ATTR
30 1
charge -1
@<TRIPOS>BOND
     1     2     1    1
     2     2     3    1
     3     3     4    1
     4     4     5    1
     5     5     6   ar
     6     6    18    1
     7    18    19    1
     8    19    20    1
     9    20    21    1
    10    21    23    1
    11    23    24    1
    12    23    25    1
    13    25    26    1
    14    21    22    1
    15     6     7   ar
    16     7     8    1
    17     7     9   ar
    18     9    10    1
    19     9    11   ar
    20    11    12   ar
    21    12    13   ar
    22    13    29    1
    23    29    30   ar
    24    29    31   ar
    25    13    14   ar
    26    14    15    2
    27    14    16   ar
    28    16    17   ar
    29    16     2    1
    30    17     5   ar
    31    22    18    1
    32    17    11   ar
    33    26    23    1
    34    24    27    1
    35    24    28    1
@<TRIPOS>MOLECULE
*****
 31 35 0 0 0
SMALL
GASTEIGER

@<TRIPOS>ATOM
      1 C         140.3498  145.8456  161.9487 C.3     1  UNL1        0.0285
      2 C         140.5926  144.5633  162.6880 C.3     1  UNL1        0.1321
      3 C         139.9648  144.3421  164.0322 C.3     1  UNL1        0.2279
      4 O         140.2076  143.0597  164.7715 O.3     1  UNL1       -0.4707
      5 C         141.0781  141.9985  164.1666 C.ar    1  UNL1        0.1697
      6 C         141.3209  140.7161  164.9059 C.ar    1  UNL1        0.1124
      7 C         142.1915  139.6549  164.3010 C.ar    1  UNL1        0.1668
      8 F         142.4342  138.3725  165.0402 F       1  UNL1       -0.2019
      9 C         142.8193  139.8761  162.9567 C.ar    1  UNL1        0.0878
     10 CL        143.6898  138.8149  162.3518 Cl      1  UNL1       -0.0798
     11 C         142.5765  141.1584  162.2174 C.ar    1  UNL1        0.0319
     12 C         143.2043  141.3796  160.8732 C.ar    1  UNL1        0.0083
     13 C         142.9615  142.6620  160.1339 C.ar    1  UNL1        0.0702
     14 C         142.0909  143.7232  160.7388 C.ar    1  UNL1        0.2620
     15 O         141.8482  145.0056  159.9995 O.2     1  UNL1       -0.2669
     16 N         141.4631  143.5021  162.0831 N.ar    1  UNL1       -0.2909
     17 C         141.7059  142.2197  162.8224 C.ar    1  UNL1        0.0988
     18 N         140.6931  140.4949  166.2501 N.pl3   1  UNL1       -0.3033
     19 C         139.3763  139.8246  166.5087 C.3     1  UNL1        0.0910
     20 C         139.1413  139.8206  167.9902 C.3     1  UNL1        0.0244
     21 C         140.3128  140.4884  168.6472 C.3     1  UNL1        0.0344
     22 C         141.2719  140.9052  167.5717 C.3     1  UNL1        0.0922
     23 C         140.4935  140.7020  170.1209 C.3     1  UNL1        0.0406
     24 N         139.4231  139.7933  170.6489 N.3     1  UNL1       -0.3231
     25 C         141.0458  141.2310  171.4112 C.3     1  UNL1        0.0156
     26 C         141.6265  141.6847  170.1046 C.3     1  UNL1        0.0156
     27 H         138.9419  139.3457  169.8689 H       1  UNL1        0.1188
     28 H         138.7542  140.3370  171.1942 H       1  UNL1        0.1188
     29 C         143.5893  142.8832  158.7896 C.2     1  UNL1        0.0775
     30 O         145.0808  142.8290  158.6404 O.co2   1  UNL1       -0.5444
     31 O         142.7255  143.1584  157.5946 O.co2   1  UNL1       -0.5444
@<TRIPOS>UNITY_ATOM_ATTR
30 1
charge -1
@<TRIPOS>BOND
     1     2     1    1
     2     2     3    1
     3     3     4    1
     4     4     5    1
     5     5     6   ar
     6     6    18    1
     7    18    19    1
     8    19    20    1
     9    20    21    1
    10    21    23    1
    11    23    24    1
    12    23    25    1
    13    25    26    1
    14    21    22    1
    15     6     7   ar
    16     7     8    1
    17     7     9   ar
    18     9    10    1
    19     9    11   ar
    20    11    12   ar
    21    12    13   ar
    22    13    29    1
    23    29    30   ar
    24    29    31   ar
    25    13    14   ar
    26    14    15    2
    27    14    16   ar
    28    16    17   ar
    29    16     2    1
    30    17     5   ar
    31    22    18    1
    32    17    11   ar
    33    26    23    1
    34    24    27    1
    35    24    28    1
@<TRIPOS>MOLECULE
*****
 31 35 0 0 0
SMALL
GASTEIGER

@<TRIPOS>ATOM
      1 C         139.5987  145.2913  161.8200 C.3     1  UNL1        0.0285
      2 C         139.6215  144.1064  162.7395 C.3     1  UNL1        0.1321
      3 C         139.9015  144.2963  164.2008 C.3     1  UNL1        0.2279
      4 O         139.9243  143.1114  165.1203 O.3     1  UNL1       -0.4707
      5 C         139.6670  141.7366  164.5784 C.ar    1  UNL1        0.1697
      6 C         139.6898  140.5516  165.4979 C.ar    1  UNL1        0.1124
      7 C         139.4326  139.1768  164.9561 C.ar    1  UNL1        0.1668
      8 F         139.4554  137.9919  165.8755 F       1  UNL1       -0.2019
      9 C         139.1525  138.9869  163.4947 C.ar    1  UNL1        0.0878
     10 CL        138.8952  137.6120  162.9528 Cl      1  UNL1       -0.0798
     11 C         139.1297  140.1718  162.5752 C.ar    1  UNL1        0.0319
     12 C         138.8496  139.9819  161.1139 C.ar    1  UNL1        0.0083
     13 C         138.8268  141.1668  160.1944 C.ar    1  UNL1        0.0702
     14 C         139.0841  142.5417  160.7363 C.ar    1  UNL1        0.2620
     15 O         139.0613  143.7266  159.8168 O.2     1  UNL1       -0.2669
     16 N         139.3642  142.7316  162.1977 N.ar    1  UNL1       -0.2909
     17 C         139.3870  141.5467  163.1171 C.ar    1  UNL1        0.0988
     18 N         139.9699  140.7415  166.9592 N.pl3   1  UNL1       -0.3033
     19 C         139.2698  140.0458  168.0888 C.3     1  UNL1        0.0910
     20 C         139.8664  140.5347  169.3753 C.3     1  UNL1        0.0244
     21 C         140.9353  141.5326  169.0408 C.3     1  UNL1        0.0344
     22 C         140.9992  141.6604  167.5476 C.3     1  UNL1        0.0922
     23 C         141.7901  142.2728  170.0265 C.3     1  UNL1        0.0406
     24 N         140.8408  142.3542  171.1850 N.3     1  UNL1       -0.3231
     25 C         142.9745  142.9846  170.6098 C.3     1  UNL1        0.0156
     26 C         143.0362  142.4484  169.2102 C.3     1  UNL1        0.0156
     27 H         139.9618  141.9001  170.9369 H       1  UNL1        0.1188
     28 H         140.6654  143.3329  171.4127 H       1  UNL1        0.1188
     29 C         138.5467  140.9769  158.7331 C.2     1  UNL1        0.0775
     30 O         137.2618  140.3411  158.2921 O.co2   1  UNL1       -0.5444
     31 O         139.5517  141.4228  157.7127 O.co2   1  UNL1       -0.5444
@<TRIPOS>UNITY_ATOM_ATTR
30 1
charge -1
@<TRIPOS>BOND
     1     2     1    1
     2     2     3    1
     3     3     4    1
     4     4     5    1
     5     5     6   ar
     6     6    18    1
     7    18    19    1
     8    19    20    1
     9    20    21    1
    10    21    23    1
    11    23    24    1
    12    23    25    1
    13    25    26    1
    14    21    22    1
    15     6     7   ar
    16     7     8    1
    17     7     9   ar
    18     9    10    1
    19     9    11   ar
    20    11    12   ar
    21    12    13   ar
    22    13    29    1
    23    29    30   ar
    24    29    31   ar
    25    13    14   ar
    26    14    15    2
    27    14    16   ar
    28    16    17   ar
    29    16     2    1
    30    17     5   ar
    31    22    18    1
    32    17    11   ar
    33    26    23    1
    34    24    27    1
    35    24    28    1
@<TRIPOS>MOLECULE
*****
 31 35 0 0 0
SMALL
GASTEIGER

@<TRIPOS>ATOM
      1 C         144.0111  143.0653  166.2320 C.3     1  UNL1        0.0285
      2 C         143.0583  142.1717  165.4947 C.3     1  UNL1        0.1321
      3 C         143.1676  142.0246  164.0060 C.3     1  UNL1        0.2279
      4 O         142.2148  141.1310  163.2686 O.3     1  UNL1       -0.4707
      5 C         141.1527  140.3845  164.0200 C.ar    1  UNL1        0.1697
      6 C         140.2000  139.4908  163.2827 C.ar    1  UNL1        0.1124
      7 C         139.1379  138.7443  164.0341 C.ar    1  UNL1        0.1668
      8 F         138.1851  137.8507  163.2967 F       1  UNL1       -0.2019
      9 C         139.0285  138.8914  165.5229 C.ar    1  UNL1        0.0878
     10 CL        137.9664  138.1449  166.2743 Cl      1  UNL1       -0.0798
     11 C         139.9813  139.7850  166.2602 C.ar    1  UNL1        0.0319
     12 C         139.8720  139.9321  167.7490 C.ar    1  UNL1        0.0083
     13 C         140.8248  140.8257  168.4863 C.ar    1  UNL1        0.0702
     14 C         141.8869  141.5722  167.7349 C.ar    1  UNL1        0.2620
     15 O         142.8397  142.4658  168.4722 O.2     1  UNL1       -0.2669
     16 N         141.9962  141.4252  166.2461 N.ar    1  UNL1       -0.2909
     17 C         141.0434  140.5316  165.5088 C.ar    1  UNL1        0.0988
     18 N         140.3093  139.3437  161.7940 N.pl3   1  UNL1       -0.3033
     19 C         139.3504  139.8953  160.7807 C.3     1  UNL1        0.0910
     20 C         139.8451  139.5117  159.4175 C.3     1  UNL1        0.0244
     21 C         141.1097  138.7231  159.5883 C.3     1  UNL1        0.0344
     22 C         141.3965  138.6193  161.0570 C.3     1  UNL1        0.0922
     23 C         141.9414  138.1406  158.4842 C.3     1  UNL1        0.0406
     24 N         143.2996  138.2096  159.1171 N.3     1  UNL1       -0.3231
     25 C         142.3014  137.5342  157.1604 C.3     1  UNL1        0.0156
     26 C         140.8720  137.8693  157.4679 C.3     1  UNL1        0.0156
     27 H         143.2196  138.6122  160.0508 H       1  UNL1        0.1188
     28 H         143.9114  138.7932  158.5465 H       1  UNL1        0.1188
     29 C         140.7154  140.9728  169.9751 C.2     1  UNL1        0.0775
     30 O         141.7956  140.4309  170.8636 O.co2   1  UNL1       -0.5444
     31 O         139.5259  141.6618  170.5753 O.co2   1  UNL1       -0.5444
@<TRIPOS>UNITY_ATOM_ATTR
30 1
charge -1
@<TRIPOS>BOND
     1     2     1    1
     2     2     3    1
     3     3     4    1
     4     4     5    1
     5     5     6   ar
     6     6    18    1
     7    18    19    1
     8    19    20    1
     9    20    21    1
    10    21    23    1
    11    23    24    1
    12    23    25    1
    13    25    26    1
    14    21    22    1
    15     6     7   ar
    16     7     8    1
    17     7     9   ar
    18     9    10    1
    19     9    11   ar
    20    11    12   ar
    21    12    13   ar
    22    13    29    1
    23    29    30   ar
    24    29    31   ar
    25    13    14   ar
    26    14    15    2
    27    14    16   ar
    28    16    17   ar
    29    16     2    1
    30    17     5   ar
    31    22    18    1
    32    17    11   ar
    33    26    23    1
    34    24    27    1
    35    24    28    1
@<TRIPOS>MOLECULE
*****
 31 35 0 0 0
SMALL
GASTEIGER

@<TRIPOS>ATOM
      1 C         138.4974  144.6850  165.2296 C.3     1  UNL1        0.0285
      2 C         139.2882  144.5183  163.9660 C.3     1  UNL1        0.1321
      3 C         138.7738  145.0902  162.6783 C.3     1  UNL1        0.2279
      4 O         139.5647  144.9234  161.4147 O.3     1  UNL1       -0.4707
      5 C         140.8699  144.1848  161.4387 C.ar    1  UNL1        0.1697
      6 C         141.6608  144.0181  160.1751 C.ar    1  UNL1        0.1124
      7 C         142.9661  143.2794  160.1992 C.ar    1  UNL1        0.1668
      8 F         143.7569  143.1127  158.9356 F       1  UNL1       -0.2019
      9 C         143.4806  142.7075  161.4870 C.ar    1  UNL1        0.0878
     10 CL        144.7858  141.9688  161.5111 Cl      1  UNL1       -0.0798
     11 C         142.6897  142.8742  162.7506 C.ar    1  UNL1        0.0319
     12 C         143.2041  142.3023  164.0383 C.ar    1  UNL1        0.0083
     13 C         142.4132  142.4690  165.3019 C.ar    1  UNL1        0.0702
     14 C         141.1080  143.2076  165.2778 C.ar    1  UNL1        0.2620
     15 O         140.3171  143.3744  166.5415 O.2     1  UNL1       -0.2669
     16 N         140.5935  143.7796  163.9901 N.ar    1  UNL1       -0.2909
     17 C         141.3844  143.6129  162.7265 C.ar    1  UNL1        0.0988
     18 N         141.1464  144.5900  158.8874 N.pl3   1  UNL1       -0.3033
     19 C         141.7508  145.7327  158.1264 C.3     1  UNL1        0.0910
     20 C         140.9152  145.9686  156.9032 C.3     1  UNL1        0.0244
     21 C         139.7944  144.9717  156.9082 C.3     1  UNL1        0.0344
     22 C         139.9373  144.1197  158.1345 C.3     1  UNL1        0.0922
     23 C         138.7194  144.8485  155.8693 C.3     1  UNL1        0.0406
     24 N         138.4370  143.3781  155.9599 N.3     1  UNL1       -0.3231
     25 C         137.7426  145.2358  154.7990 C.3     1  UNL1        0.0156
     26 C         138.6285  146.2760  155.4180 C.3     1  UNL1        0.0156
     27 H         139.0409  142.9588  156.6670 H       1  UNL1        0.1188
     28 H         138.6174  142.9409  155.0562 H       1  UNL1        0.1188
     29 C         142.9277  141.8970  166.5897 C.2     1  UNL1        0.0775
     30 O         143.6865  142.7676  167.5469 O.co2   1  UNL1       -0.5444
     31 O         142.6833  140.4545  166.9202 O.co2   1  UNL1       -0.5444
@<TRIPOS>UNITY_ATOM_ATTR
30 1
charge -1
@<TRIPOS>BOND
     1     2     1    1
     2     2     3    1
     3     3     4    1
     4     4     5    1
     5     5     6   ar
     6     6    18    1
     7    18    19    1
     8    19    20    1
     9    20    21    1
    10    21    23    1
    11    23    24    1
    12    23    25    1
    13    25    26    1
    14    21    22    1
    15     6     7   ar
    16     7     8    1
    17     7     9   ar
    18     9    10    1
    19     9    11   ar
    20    11    12   ar
    21    12    13   ar
    22    13    29    1
    23    29    30   ar
    24    29    31   ar
    25    13    14   ar
    26    14    15    2
    27    14    16   ar
    28    16    17   ar
    29    16     2    1
    30    17     5   ar
    31    22    18    1
    32    17    11   ar
    33    26    23    1
    34    24    27    1
    35    24    28    1
