@<TRIPOS>MOLECULE
*****
 30 33 0 0 0
SMALL
GASTEIGER

@<TRIPOS>ATOM
      1 C         142.8346  139.3055  167.5070 C.ar    1  UNL1        0.1289
      2 N         142.8385  138.8268  168.9286 N.ar    1  UNL1       -0.2292
      3 C         142.0801  139.5849  169.9773 C.ar    1  UNL1        0.1053
      4 C         141.3177  140.8219  169.6046 C.ar    1  UNL1        0.0783
      5 C         141.3137  141.3005  168.1831 C.ar    1  UNL1        0.0380
      6 S         140.6586  142.4768  167.5220 S.2     1  UNL1       -0.0866
      7 C         141.0121  142.4457  166.0646 C.ar    1  UNL1        0.0296
      8 C         141.8857  141.2501  165.8250 C.ar    1  UNL1        0.0097
      9 C         142.0722  140.5424  167.1343 C.ar    1  UNL1        0.0380
     10 C         140.5696  143.4362  165.0287 C.ar    1  UNL1        0.0060
     11 C         139.1075  143.6894  164.8092 C.ar    1  UNL1        0.0005
     12 C         138.6652  144.6799  163.7733 C.ar    1  UNL1        0.0000
     13 C         139.6848  145.4172  162.9567 C.ar    1  UNL1        0.0000
     14 C         141.1469  145.1640  163.1761 C.ar    1  UNL1        0.0000
     15 C         141.5893  144.1734  164.2121 C.ar    1  UNL1        0.0005
     16 C         140.5593  141.5800  170.6535 C.2     1  UNL1        0.2448
     17 N         139.0621  141.6496  170.5932 N.am    1  UNL1       -0.3253
     18 O         141.2981  142.2683  171.7627 O.2     1  UNL1       -0.2703
     19 H         138.5773  141.1978  169.8652 H       1  UNL1        0.1453
     20 H         138.5644  142.1472  171.2816 H       1  UNL1        0.1453
     21 N         143.5930  138.5474  166.4582 N.pl3   1  UNL1       -0.3184
     22 H         144.4947  138.2043  166.6543 H       1  UNL1        0.1482
     23 C         144.9075  139.6471  163.9959 C.3     1  UNL1        0.0188
     24 C         143.6348  138.8618  163.8796 C.3     1  UNL1        0.0722
     25 N         143.0194  138.6263  162.5321 N.3     1  UNL1       -0.2972
     26 C         141.7466  137.8409  162.4157 C.3     1  UNL1        0.0686
     27 C         141.0894  137.2911  163.6468 C.3     1  UNL1        0.0188
     28 C         141.7049  137.5266  164.9944 C.3     1  UNL1        0.0223
     29 C         142.9775  138.3119  165.1107 C.3     1  UNL1        0.0847
     30 H         143.7180  138.1398  161.9703 H       1  UNL1        0.1233
@<TRIPOS>BOND
     1    24    23    1
     2    24    25    1
     3    25    26    1
     4    26    27    1
     5    27    28    1
     6    28    29    1
     7    29    21    1
     8    21     1    1
     9     1     2   ar
    10     2     3   ar
    11     3     4   ar
    12     4    16    1
    13    16    17   am
    14    16    18    2
    15     4     5   ar
    16     5     6   ar
    17     6     7   ar
    18     7    10    1
    19    10    11   ar
    20    11    12   ar
    21    12    13   ar
    22    13    14   ar
    23    14    15   ar
    24     7     8   ar
    25     8     9   ar
    26    29    24    1
    27     9     1   ar
    28     9     5   ar
    29    15    10   ar
    30    25    30    1
    31    21    22    1
    32    17    19    1
    33    17    20    1
@<TRIPOS>MOLECULE
*****
 30 33 0 0 0
SMALL
GASTEIGER

@<TRIPOS>ATOM
      1 C         138.6575  139.5861  167.0343 C.ar    1  UNL1        0.1289
      2 N         138.2024  139.1897  168.4075 N.ar    1  UNL1       -0.2292
      3 C         138.7358  139.9086  169.6110 C.ar    1  UNL1        0.1053
      4 C         139.7244  141.0240  169.4414 C.ar    1  UNL1        0.0783
      5 C         140.1795  141.4204  168.0682 C.ar    1  UNL1        0.0380
      6 S         141.1370  142.4726  167.5930 S.2     1  UNL1       -0.0866
      7 C         141.1953  142.4040  166.0957 C.ar    1  UNL1        0.0296
      8 C         140.2738  141.3094  165.6455 C.ar    1  UNL1        0.0097
      9 C         139.6460  140.7014  166.8646 C.ar    1  UNL1        0.0380
     10 C         142.0288  143.2768  165.2049 C.ar    1  UNL1        0.0060
     11 C         143.5193  143.1108  165.1738 C.ar    1  UNL1        0.0005
     12 C         144.3527  143.9837  164.2829 C.ar    1  UNL1        0.0000
     13 C         143.6957  145.0225  163.4232 C.ar    1  UNL1        0.0000
     14 C         142.2052  145.1885  163.4542 C.ar    1  UNL1        0.0000
     15 C         141.3718  144.3156  164.3451 C.ar    1  UNL1        0.0005
     16 C         140.2579  141.7429  170.6451 C.2     1  UNL1        0.2448
     17 N         139.6413  143.0398  171.0784 N.am    1  UNL1       -0.3253
     18 O         141.4079  141.1648  171.4153 O.2     1  UNL1       -0.2703
     19 H         138.8865  143.4192  170.5728 H       1  UNL1        0.1453
     20 H         139.9914  143.5116  171.8683 H       1  UNL1        0.1453
     21 N         138.1240  138.8671  165.8308 N.pl3   1  UNL1       -0.3184
     22 H         137.1646  138.6547  165.7694 H       1  UNL1        0.1482
     23 C         137.8015  140.0758  163.1040 C.3     1  UNL1        0.0188
     24 C         138.8909  139.0762  163.3573 C.3     1  UNL1        0.0722
     25 N         139.8191  138.6810  162.2472 N.3     1  UNL1       -0.2972
     26 C         140.9085  137.6814  162.5006 C.3     1  UNL1        0.0686
     27 C         141.0697  137.0771  163.8639 C.3     1  UNL1        0.0188
     28 C         140.1415  137.4723  164.9741 C.3     1  UNL1        0.0223
     29 C         139.0521  138.4719  164.7207 C.3     1  UNL1        0.0847
     30 H         140.2728  139.5356  161.9245 H       1  UNL1        0.1233
@<TRIPOS>BOND
     1    24    23    1
     2    24    25    1
     3    25    26    1
     4    26    27    1
     5    27    28    1
     6    28    29    1
     7    29    21    1
     8    21     1    1
     9     1     2   ar
    10     2     3   ar
    11     3     4   ar
    12     4    16    1
    13    16    17   am
    14    16    18    2
    15     4     5   ar
    16     5     6   ar
    17     6     7   ar
    18     7    10    1
    19    10    11   ar
    20    11    12   ar
    21    12    13   ar
    22    13    14   ar
    23    14    15   ar
    24     7     8   ar
    25     8     9   ar
    26    29    24    1
    27     9     1   ar
    28     9     5   ar
    29    15    10   ar
    30    25    30    1
    31    21    22    1
    32    17    19    1
    33    17    20    1
@<TRIPOS>MOLECULE
*****
 30 33 0 0 0
SMALL
GASTEIGER

@<TRIPOS>ATOM
      1 C         138.7752  139.5681  167.6138 C.ar    1  UNL1        0.1289
      2 N         138.2126  139.5267  169.0037 N.ar    1  UNL1       -0.2292
      3 C         139.0335  140.0155  170.1599 C.ar    1  UNL1        0.1053
      4 C         140.4172  140.5457  169.9264 C.ar    1  UNL1        0.0783
      5 C         140.9798  140.5871  168.5366 C.ar    1  UNL1        0.0380
      6 S         142.3022  141.0520  168.0025 S.2     1  UNL1       -0.0866
      7 C         142.2984  140.8505  166.5161 C.ar    1  UNL1        0.0296
      8 C         140.9738  140.2611  166.1315 C.ar    1  UNL1        0.0097
      9 C         140.1588  140.0983  167.3803 C.ar    1  UNL1        0.0380
     10 C         143.4221  141.1805  165.5789 C.ar    1  UNL1        0.0060
     11 C         144.0850  140.0908  164.7896 C.ar    1  UNL1        0.0005
     12 C         145.2087  140.4209  163.8523 C.ar    1  UNL1        0.0000
     13 C         145.6694  141.8406  163.7043 C.ar    1  UNL1        0.0000
     14 C         145.0065  142.9304  164.4935 C.ar    1  UNL1        0.0000
     15 C         143.8828  142.6003  165.4308 C.ar    1  UNL1        0.0005
     16 C         141.2381  141.0346  171.0828 C.2     1  UNL1        0.2448
     17 N         142.5452  140.3741  171.4070 N.am    1  UNL1       -0.3253
     18 O         140.7518  142.1839  171.9150 O.2     1  UNL1       -0.2703
     19 H         142.8644  139.6197  170.8607 H       1  UNL1        0.1453
     20 H         143.0840  140.6949  172.1659 H       1  UNL1        0.1453
     21 N         137.9543  139.0792  166.4575 N.pl3   1  UNL1       -0.3184
     22 H         136.9886  138.9242  166.5701 H       1  UNL1        0.1482
     23 C         137.7847  141.1437  164.2873 C.3     1  UNL1        0.0188
     24 C         138.5198  139.8589  164.0446 C.3     1  UNL1        0.0722
     25 N         139.1701  139.6063  162.7167 N.3     1  UNL1       -0.2972
     26 C         139.9052  138.3214  162.4739 C.3     1  UNL1        0.0686
     27 C         139.9900  137.2893  163.5589 C.3     1  UNL1        0.0188
     28 C         139.3397  137.5419  164.8869 C.3     1  UNL1        0.0223
     29 C         138.6046  138.8266  165.1296 C.3     1  UNL1        0.0847
     30 H         139.8398  140.3613  162.5684 H       1  UNL1        0.1233
@<TRIPOS>BOND
     1    24    23    1
     2    24    25    1
     3    25    26    1
     4    26    27    1
     5    27    28    1
     6    28    29    1
     7    29    21    1
     8    21     1    1
     9     1     2   ar
    10     2     3   ar
    11     3     4   ar
    12     4    16    1
    13    16    17   am
    14    16    18    2
    15     4     5   ar
    16     5     6   ar
    17     6     7   ar
    18     7    10    1
    19    10    11   ar
    20    11    12   ar
    21    12    13   ar
    22    13    14   ar
    23    14    15   ar
    24     7     8   ar
    25     8     9   ar
    26    29    24    1
    27     9     1   ar
    28     9     5   ar
    29    15    10   ar
    30    25    30    1
    31    21    22    1
    32    17    19    1
    33    17    20    1
@<TRIPOS>MOLECULE
*****
 30 33 0 0 0
SMALL
GASTEIGER

@<TRIPOS>ATOM
      1 C         142.5818  139.3516  167.3910 C.ar    1  UNL1        0.1289
      2 N         143.0274  139.1383  168.8073 N.ar    1  UNL1       -0.2292
      3 C         142.6857  140.1493  169.8613 C.ar    1  UNL1        0.1053
      4 C         141.8984  141.3737  169.4991 C.ar    1  UNL1        0.0783
      5 C         141.4529  141.5869  168.0827 C.ar    1  UNL1        0.0380
      6 S         140.6704  142.6888  167.4319 S.2     1  UNL1       -0.0866
      7 C         140.5284  142.3587  165.9756 C.ar    1  UNL1        0.0296
      8 C         141.2232  141.0529  165.7264 C.ar    1  UNL1        0.0097
      9 C         141.7946  140.5759  167.0287 C.ar    1  UNL1        0.0380
     10 C         139.8167  143.1887  164.9487 C.ar    1  UNL1        0.0060
     11 C         138.3618  142.9522  164.6703 C.ar    1  UNL1        0.0005
     12 C         137.6501  143.7822  163.6434 C.ar    1  UNL1        0.0000
     13 C         138.3932  144.8488  162.8949 C.ar    1  UNL1        0.0000
     14 C         139.8480  145.0853  163.1732 C.ar    1  UNL1        0.0000
     15 C         140.5597  144.2552  164.2002 C.ar    1  UNL1        0.0005
     16 C         141.5568  142.3847  170.5532 C.2     1  UNL1        0.2448
     17 N         140.3961  142.1463  171.4729 N.am    1  UNL1       -0.3253
     18 O         142.3759  143.6341  170.6875 O.2     1  UNL1       -0.2703
     19 H         139.8585  141.3263  171.3847 H       1  UNL1        0.1453
     20 H         140.1719  142.8099  172.1648 H       1  UNL1        0.1453
     21 N         142.9235  138.3405  166.3369 N.pl3   1  UNL1       -0.3184
     22 H         142.8779  137.3791  166.5438 H       1  UNL1        0.1482
     23 C         141.3705  137.4460  163.9310 C.3     1  UNL1        0.0188
     24 C         142.5582  138.3470  163.7647 C.3     1  UNL1        0.0722
     25 N         142.9694  138.8008  162.3954 N.3     1  UNL1       -0.2972
     26 C         144.1571  139.7018  162.2290 C.3     1  UNL1        0.0686
     27 C         144.9335  140.1490  163.4319 C.3     1  UNL1        0.0188
     28 C         144.5223  139.6952  164.8013 C.3     1  UNL1        0.0223
     29 C         143.3347  138.7943  164.9676 C.3     1  UNL1        0.0847
     30 H         142.1695  139.2910  161.9951 H       1  UNL1        0.1233
@<TRIPOS>BOND
     1    24    23    1
     2    24    25    1
     3    25    26    1
     4    26    27    1
     5    27    28    1
     6    28    29    1
     7    29    21    1
     8    21     1    1
     9     1     2   ar
    10     2     3   ar
    11     3     4   ar
    12     4    16    1
    13    16    17   am
    14    16    18    2
    15     4     5   ar
    16     5     6   ar
    17     6     7   ar
    18     7    10    1
    19    10    11   ar
    20    11    12   ar
    21    12    13   ar
    22    13    14   ar
    23    14    15   ar
    24     7     8   ar
    25     8     9   ar
    26    29    24    1
    27     9     1   ar
    28     9     5   ar
    29    15    10   ar
    30    25    30    1
    31    21    22    1
    32    17    19    1
    33    17    20    1
@<TRIPOS>MOLECULE
*****
 30 33 0 0 0
SMALL
GASTEIGER

@<TRIPOS>ATOM
      1 C         143.3116  142.5957  167.0298 C.ar    1  UNL1        0.1289
      2 N         143.8247  142.5614  168.4389 N.ar    1  UNL1       -0.2292
      3 C         143.3195  141.5230  169.3960 C.ar    1  UNL1        0.1053
      4 C         142.3010  140.5186  168.9442 C.ar    1  UNL1        0.0783
      5 C         141.7879  140.5529  167.5351 C.ar    1  UNL1        0.0380
      6 S         140.7908  139.6993  166.8091 S.2     1  UNL1       -0.0866
      7 C         140.6798  140.2102  165.4032 C.ar    1  UNL1        0.0296
      8 C         141.6083  141.3796  165.2603 C.ar    1  UNL1        0.0097
      9 C         142.2932  141.5914  166.5779 C.ar    1  UNL1        0.0380
     10 C         139.7956  139.6502  164.3287 C.ar    1  UNL1        0.0060
     11 C         139.8648  138.1917  163.9849 C.ar    1  UNL1        0.0005
     12 C         138.9805  137.6317  162.9104 C.ar    1  UNL1        0.0000
     13 C         138.0270  138.5301  162.1798 C.ar    1  UNL1        0.0000
     14 C         137.9578  139.9885  162.5236 C.ar    1  UNL1        0.0000
     15 C         138.8421  140.5485  163.5980 C.ar    1  UNL1        0.0005
     16 C         141.7958  139.4801  169.9014 C.2     1  UNL1        0.2448
     17 N         142.7072  138.3845  170.3691 N.am    1  UNL1       -0.3253
     18 O         140.3791  139.5374  170.3910 O.2     1  UNL1       -0.2703
     19 H         143.6370  138.3469  170.0477 H       1  UNL1        0.1453
     20 H         142.3756  137.7029  170.9973 H       1  UNL1        0.1453
     21 N         143.8169  143.6342  166.0726 N.pl3   1  UNL1       -0.3184
     22 H         143.8841  144.5744  166.3568 H       1  UNL1        0.1482
     23 C         142.6841  145.0972  163.7111 C.3     1  UNL1        0.0188
     24 C         143.6534  143.9718  163.5018 C.3     1  UNL1        0.0722
     25 N         144.0563  143.5778  162.1117 N.3     1  UNL1       -0.2972
     26 C         145.0256  142.4522  161.9023 C.3     1  UNL1        0.0686
     27 C         145.5919  141.7208  163.0829 C.3     1  UNL1        0.0188
     28 C         145.1890  142.1147  164.4731 C.3     1  UNL1        0.0223
     29 C         144.2198  143.2402  164.6825 C.3     1  UNL1        0.0847
     30 H         144.4674  144.4048  161.6787 H       1  UNL1        0.1233
@<TRIPOS>BOND
     1    24    23    1
     2    24    25    1
     3    25    26    1
     4    26    27    1
     5    27    28    1
     6    28    29    1
     7    29    21    1
     8    21     1    1
     9     1     2   ar
    10     2     3   ar
    11     3     4   ar
    12     4    16    1
    13    16    17   am
    14    16    18    2
    15     4     5   ar
    16     5     6   ar
    17     6     7   ar
    18     7    10    1
    19    10    11   ar
    20    11    12   ar
    21    12    13   ar
    22    13    14   ar
    23    14    15   ar
    24     7     8   ar
    25     8     9   ar
    26    29    24    1
    27     9     1   ar
    28     9     5   ar
    29    15    10   ar
    30    25    30    1
    31    21    22    1
    32    17    19    1
    33    17    20    1
@<TRIPOS>MOLECULE
*****
 30 33 0 0 0
SMALL
GASTEIGER

@<TRIPOS>ATOM
      1 C         143.0265  142.9811  162.3179 C.ar    1  UNL1        0.1289
      2 N         142.7544  143.8692  161.1401 N.ar    1  UNL1       -0.2292
      3 C         141.5236  144.7261  161.1154 C.ar    1  UNL1        0.1053
      4 C         140.5647  144.6950  162.2685 C.ar    1  UNL1        0.0783
      5 C         140.8368  143.8069  163.4464 C.ar    1  UNL1        0.0380
      6 S         140.0794  143.5671  164.7187 S.2     1  UNL1       -0.0866
      7 C         140.8421  142.5619  165.5297 C.ar    1  UNL1        0.0296
      8 C         142.0710  142.1805  164.7586 C.ar    1  UNL1        0.0097
      9 C         142.0677  142.9500  163.4711 C.ar    1  UNL1        0.0380
     10 C         140.4457  142.0312  166.8755 C.ar    1  UNL1        0.0060
     11 C         139.8892  140.6439  167.0004 C.ar    1  UNL1        0.0005
     12 C         139.4927  140.1132  168.3463 C.ar    1  UNL1        0.0000
     13 C         139.6528  140.9699  169.5672 C.ar    1  UNL1        0.0000
     14 C         140.2093  142.3572  169.4422 C.ar    1  UNL1        0.0000
     15 C         140.6057  142.8878  168.0963 C.ar    1  UNL1        0.0005
     16 C         139.3338  145.5520  162.2438 C.2     1  UNL1        0.2448
     17 N         139.4506  147.0250  161.9859 N.am    1  UNL1       -0.3253
     18 O         137.9862  144.9358  162.4768 O.2     1  UNL1       -0.2703
     19 H         140.3351  147.4294  161.8330 H       1  UNL1        0.1453
     20 H         138.6427  147.5874  161.9697 H       1  UNL1        0.1453
     21 N         144.2574  142.1242  162.3426 N.pl3   1  UNL1       -0.3184
     22 H         145.1179  142.5069  162.6294 H       1  UNL1        0.1482
     23 C         145.0141  139.9642  164.2822 C.3     1  UNL1        0.0188
     24 C         144.5555  139.6043  162.9002 C.3     1  UNL1        0.0722
     25 N         144.4753  138.1643  162.4879 N.3     1  UNL1       -0.2972
     26 C         144.0167  137.8043  161.1057 C.3     1  UNL1        0.0686
     27 C         143.6383  138.8842  160.1360 C.3     1  UNL1        0.0188
     28 C         143.7186  140.3243  160.5482 C.3     1  UNL1        0.0223
     29 C         144.1771  140.6842  161.9303 C.3     1  UNL1        0.0847
     30 H         143.8366  137.7069  163.1385 H       1  UNL1        0.1233
@<TRIPOS>BOND
     1    24    23    1
     2    24    25    1
     3    25    26    1
     4    26    27    1
     5    27    28    1
     6    28    29    1
     7    29    21    1
     8    21     1    1
     9     1     2   ar
    10     2     3   ar
    11     3     4   ar
    12     4    16    1
    13    16    17   am
    14    16    18    2
    15     4     5   ar
    16     5     6   ar
    17     6     7   ar
    18     7    10    1
    19    10    11   ar
    20    11    12   ar
    21    12    13   ar
    22    13    14   ar
    23    14    15   ar
    24     7     8   ar
    25     8     9   ar
    26    29    24    1
    27     9     1   ar
    28     9     5   ar
    29    15    10   ar
    30    25    30    1
    31    21    22    1
    32    17    19    1
    33    17    20    1
@<TRIPOS>MOLECULE
*****
 30 33 0 0 0
SMALL
GASTEIGER

@<TRIPOS>ATOM
      1 C         138.6573  141.0584  162.2284 C.ar    1  UNL1        0.1289
      2 N         138.4087  141.7075  160.8992 N.ar    1  UNL1       -0.2292
      3 C         138.9165  143.0939  160.6349 C.ar    1  UNL1        0.1053
      4 C         139.6730  143.8313  161.6999 C.ar    1  UNL1        0.0783
      5 C         139.9217  143.1821  163.0290 C.ar    1  UNL1        0.0380
      6 S         140.6305  143.6590  164.2620 S.2     1  UNL1       -0.0866
      7 C         140.5608  142.5672  165.2882 C.ar    1  UNL1        0.0296
      8 C         139.8088  141.4156  164.6896 C.ar    1  UNL1        0.0097
      9 C         139.4138  141.7957  163.2933 C.ar    1  UNL1        0.0380
     10 C         141.1411  142.6181  166.6705 C.ar    1  UNL1        0.0060
     11 C         140.2868  143.0446  167.8273 C.ar    1  UNL1        0.0005
     12 C         140.8673  143.0955  169.2096 C.ar    1  UNL1        0.0000
     13 C         142.3019  142.7199  169.4350 C.ar    1  UNL1        0.0000
     14 C         143.1561  142.2934  168.2781 C.ar    1  UNL1        0.0000
     15 C         142.5757  142.2425  166.8959 C.ar    1  UNL1        0.0005
     16 C         140.1809  145.2177  161.4355 C.2     1  UNL1        0.2448
     17 N         141.6236  145.4342  161.0869 N.am    1  UNL1       -0.3253
     18 O         139.2459  146.3876  161.5198 O.2     1  UNL1       -0.2703
     19 H         142.2372  144.6664  161.0316 H       1  UNL1        0.1453
     20 H         141.9569  146.3442  160.9134 H       1  UNL1        0.1453
     21 N         138.1494  139.6719  162.4927 N.pl3   1  UNL1       -0.3184
     22 H         137.2144  139.4426  162.2869 H       1  UNL1        0.1482
     23 C         140.3387  138.5000  160.8092 C.3     1  UNL1        0.0188
     24 C         140.1608  138.0488  162.2287 C.3     1  UNL1        0.0722
     25 N         141.0776  137.0117  162.8064 N.3     1  UNL1       -0.2972
     26 C         140.8998  136.5605  164.2259 C.3     1  UNL1        0.0686
     27 C         139.8052  137.1464  165.0676 C.3     1  UNL1        0.0188
     28 C         138.8884  138.1836  164.4898 C.3     1  UNL1        0.0223
     29 C         139.0662  138.6348  163.0704 C.3     1  UNL1        0.0847
     30 H         142.0252  137.3818  162.7316 H       1  UNL1        0.1233
@<TRIPOS>BOND
     1    24    23    1
     2    24    25    1
     3    25    26    1
     4    26    27    1
     5    27    28    1
     6    28    29    1
     7    29    21    1
     8    21     1    1
     9     1     2   ar
    10     2     3   ar
    11     3     4   ar
    12     4    16    1
    13    16    17   am
    14    16    18    2
    15     4     5   ar
    16     5     6   ar
    17     6     7   ar
    18     7    10    1
    19    10    11   ar
    20    11    12   ar
    21    12    13   ar
    22    13    14   ar
    23    14    15   ar
    24     7     8   ar
    25     8     9   ar
    26    29    24    1
    27     9     1   ar
    28     9     5   ar
    29    15    10   ar
    30    25    30    1
    31    21    22    1
    32    17    19    1
    33    17    20    1
@<TRIPOS>MOLECULE
*****
 30 33 0 0 0
SMALL
GASTEIGER

@<TRIPOS>ATOM
      1 C         138.8286  142.4991  163.8343 C.ar    1  UNL1        0.1289
      2 N         138.0010  141.4689  163.1246 N.ar    1  UNL1       -0.2292
      3 C         137.8320  140.1026  163.7199 C.ar    1  UNL1        0.1053
      4 C         138.4905  139.7663  165.0251 C.ar    1  UNL1        0.0783
      5 C         139.3181  140.7965  165.7348 C.ar    1  UNL1        0.0380
      6 S         140.0819  140.7553  167.0251 S.2     1  UNL1       -0.0866
      7 C         140.7231  142.0963  167.2272 C.ar    1  UNL1        0.0296
      8 C         140.3555  142.9662  166.0618 C.ar    1  UNL1        0.0097
      9 C         139.4872  142.1629  165.1394 C.ar    1  UNL1        0.0380
     10 C         141.5811  142.4970  168.3904 C.ar    1  UNL1        0.0060
     11 C         143.0040  142.0286  168.4694 C.ar    1  UNL1        0.0005
     12 C         143.8620  142.4294  169.6327 C.ar    1  UNL1        0.0000
     13 C         143.2972  143.2984  170.7170 C.ar    1  UNL1        0.0000
     14 C         141.8744  143.7668  170.6381 C.ar    1  UNL1        0.0000
     15 C         141.0164  143.3660  169.4748 C.ar    1  UNL1        0.0005
     16 C         138.3214  138.3999  165.6204 C.2     1  UNL1        0.2448
     17 N         137.5377  138.2256  166.8874 N.am    1  UNL1       -0.3253
     18 O         138.9360  137.2079  164.9486 O.2     1  UNL1       -0.2703
     19 H         137.1343  139.0080  167.3283 H       1  UNL1        0.1453
     20 H         137.4267  137.3288  167.2781 H       1  UNL1        0.1453
     21 N         138.9977  143.8655  163.2390 N.pl3   1  UNL1       -0.3184
     22 H         138.5208  144.6341  163.6275 H       1  UNL1        0.1482
     23 C         141.5907  145.3433  163.5430 C.3     1  UNL1        0.0188
     24 C         141.1899  144.7996  162.2038 C.3     1  UNL1        0.0722
     25 N         142.0855  144.9948  161.0165 N.3     1  UNL1       -0.2972
     26 C         141.6847  144.4511  159.6771 C.3     1  UNL1        0.0686
     27 C         140.3883  143.7122  159.5251 C.3     1  UNL1        0.0188
     28 C         139.4925  143.5169  160.7124 C.3     1  UNL1        0.0223
     29 C         139.8934  144.0607  162.0517 C.3     1  UNL1        0.0847
     30 H         142.9822  144.5688  161.2509 H       1  UNL1        0.1233
@<TRIPOS>BOND
     1    24    23    1
     2    24    25    1
     3    25    26    1
     4    26    27    1
     5    27    28    1
     6    28    29    1
     7    29    21    1
     8    21     1    1
     9     1     2   ar
    10     2     3   ar
    11     3     4   ar
    12     4    16    1
    13    16    17   am
    14    16    18    2
    15     4     5   ar
    16     5     6   ar
    17     6     7   ar
    18     7    10    1
    19    10    11   ar
    20    11    12   ar
    21    12    13   ar
    22    13    14   ar
    23    14    15   ar
    24     7     8   ar
    25     8     9   ar
    26    29    24    1
    27     9     1   ar
    28     9     5   ar
    29    15    10   ar
    30    25    30    1
    31    21    22    1
    32    17    19    1
    33    17    20    1
@<TRIPOS>MOLECULE
*****
 30 33 0 0 0
SMALL
GASTEIGER

@<TRIPOS>ATOM
      1 C         142.0061  141.4530  162.6063 C.ar    1  UNL1        0.1289
      2 N         141.9860  140.4000  161.5383 N.ar    1  UNL1       -0.2292
      3 C         141.4075  139.0471  161.8296 C.ar    1  UNL1        0.1053
      4 C         140.8490  138.7472  163.1891 C.ar    1  UNL1        0.0783
      5 C         140.8690  139.8002  164.2572 C.ar    1  UNL1        0.0380
      6 S         140.3945  139.7956  165.6801 S.2     1  UNL1       -0.0866
      7 C         140.6798  141.1457  166.2682 C.ar    1  UNL1        0.0296
      8 C         141.3306  141.9847  165.2086 C.ar    1  UNL1        0.0097
      9 C         141.4476  141.1531  163.9658 C.ar    1  UNL1        0.0380
     10 C         140.3689  141.5806  167.6697 C.ar    1  UNL1        0.0060
     11 C         139.7424  140.6161  168.6327 C.ar    1  UNL1        0.0005
     12 C         139.4316  141.0510  170.0342 C.ar    1  UNL1        0.0000
     13 C         139.7472  142.4503  170.4728 C.ar    1  UNL1        0.0000
     14 C         140.3737  143.4148  169.5098 C.ar    1  UNL1        0.0000
     15 C         140.6845  142.9798  168.1083 C.ar    1  UNL1        0.0005
     16 C         140.2705  137.3942  163.4805 C.2     1  UNL1        0.2448
     17 N         141.1591  136.2869  163.9644 N.am    1  UNL1       -0.3253
     18 O         138.8033  137.1486  163.2878 O.2     1  UNL1       -0.2703
     19 H         142.1220  136.4481  164.0909 H       1  UNL1        0.1453
     20 H         140.7794  135.3989  164.1557 H       1  UNL1        0.1453
     21 N         142.5846  142.8059  162.3149 N.pl3   1  UNL1       -0.3184
     22 H         143.5606  142.9225  162.2601 H       1  UNL1        0.1482
     23 C         142.7774  145.1898  164.1260 C.3     1  UNL1        0.0188
     24 C         141.7725  145.1731  163.0125 C.3     1  UNL1        0.0722
     25 N         140.8639  146.3484  162.8046 N.3     1  UNL1       -0.2972
     26 C         139.8590  146.3317  161.6910 C.3     1  UNL1        0.0686
     27 C         139.7626  145.1399  160.7855 C.3     1  UNL1        0.0188
     28 C         140.6712  143.9645  160.9934 C.3     1  UNL1        0.0223
     29 C         141.6761  143.9812  162.1069 C.3     1  UNL1        0.0847
     30 H         141.4626  147.1594  162.6488 H       1  UNL1        0.1233
@<TRIPOS>BOND
     1    24    23    1
     2    24    25    1
     3    25    26    1
     4    26    27    1
     5    27    28    1
     6    28    29    1
     7    29    21    1
     8    21     1    1
     9     1     2   ar
    10     2     3   ar
    11     3     4   ar
    12     4    16    1
    13    16    17   am
    14    16    18    2
    15     4     5   ar
    16     5     6   ar
    17     6     7   ar
    18     7    10    1
    19    10    11   ar
    20    11    12   ar
    21    12    13   ar
    22    13    14   ar
    23    14    15   ar
    24     7     8   ar
    25     8     9   ar
    26    29    24    1
    27     9     1   ar
    28     9     5   ar
    29    15    10   ar
    30    25    30    1
    31    21    22    1
    32    17    19    1
    33    17    20    1
